geometry optimzed in LAMMPS
_audit_creation_date              2020-11-30 
_audit_creation_method            'lammps2cif' 
_symmetry_space_group_name_H-M    'P1' 
_symmetry_Int_Tables_number       1 
_symmetry_cell_setting            triclinic 
loop_ 
_symmetry_equiv_pos_as_xyz 
  x,y,z 
_cell_length_a                    21.95802784 
_cell_length_b                    23.05764222140094 
_cell_length_c                    22.855546343046477 
_cell_angle_alpha                 89.5128774888545 
_cell_angle_beta                  91.02864687066503 
_cell_angle_gamma                 87.5644245443638 
loop_ 
_atom_site_label 
_atom_site_type_symbol 
_atom_site_fract_x 
_atom_site_fract_y 
_atom_site_fract_z 
_atom_site_charge 
O1          O  0.32260295  0.69354575  0.78163354    -0.77700
O2          O  0.30763388  0.82794668  0.73605455    -0.77700
O3          O  0.21909564  0.70438805  0.62552179    -0.77700
O4          O  0.21248924  0.80853103  0.89353766    -0.77600
O5          O  0.29657292  0.74884011  0.65595230    -0.77700
O6          O  0.29557194  0.76923072  0.86367382    -0.77700
O7          O  0.24849280  0.87209040  0.80035268    -0.77700
O8          O  0.26841549  0.64273224  0.71841004    -0.77700
C9          C  0.32032585  0.65632820  0.74214523     1.12000
C10         C  0.30228856  0.85786073  0.78107316     1.11900
C11         C  0.27363798  0.71626614  0.61905631     1.12100
C12         C  0.26919680  0.80391359  0.89735801     1.11900
O13         O  0.17516336  0.70868927  0.88119708    -0.77700
O14         O  0.16525464  0.79760023  0.63474091    -0.77700
O15         O  0.13892211  0.65771115  0.76889459    -0.77700
O16         O  0.12015609  0.84337370  0.75091812    -0.77600
O17         O  0.19134474  0.88339906  0.70556300    -0.77700
O18         O  0.22209445  0.62649806  0.81080871    -0.77700
O19         O  0.10874462  0.76746321  0.83505911    -0.77600
O20         O  0.10962325  0.73582889  0.68248816    -0.77700
Co21       Co  0.25178754  0.70493041  0.82877466     1.51500
Co22       Co  0.23962736  0.80943301  0.68876107     1.51700
Co23       Co  0.18482850  0.68955424  0.70459414     1.51600
Co24       Co  0.17441920  0.81864983  0.81408443     1.51500
O25         O  0.21274316  0.75569557  0.75899459    -1.39600
C26         C  0.11936094  0.72591447  0.87080453     1.12000
C27         C  0.11316190  0.77673971  0.64518302     1.12100
C28         C  0.16613176  0.62200418  0.80244689     1.12000
C29         C  0.13552098  0.88163020  0.71667860     1.12000
O30         O  0.78621090  0.33168560  0.72719869    -0.77700
O31         O  0.77476098  0.26617795  0.88223876    -0.77700
O32         O  0.63532214  0.26878829  0.73681168    -0.77700
O33         O  0.90067616  0.18291803  0.81130272    -0.77600
O34         O  0.68781605  0.30637110  0.80721557    -0.77700
O35         O  0.87150541  0.27379202  0.80012363    -0.77700
O36         O  0.81989146  0.17972635  0.89287478    -0.77700
O37         O  0.71916799  0.30021920  0.66357002    -0.77700
C38         C  0.74699982  0.34278221  0.68663397     1.12000
C39         C  0.81325205  0.23255870  0.90849519     1.11900
C40         C  0.64839615  0.31227356  0.76756590     1.12100
C41         C  0.90909368  0.23587137  0.82059350     1.11900
O42         O  0.88568552  0.18258033  0.70922031    -0.77700
O43         O  0.63300153  0.18717921  0.80417642    -0.77700
O44         O  0.75546167  0.17127178  0.64655194    -0.77700
O45         O  0.74804767  0.09912613  0.81941343    -0.77600
O46         O  0.71710130  0.15567873  0.88778037    -0.77700
O47         O  0.81060730  0.24629925  0.64033393    -0.77700
O48         O  0.82680911  0.11214949  0.73503844    -0.77600
O49         O  0.66899140  0.14438436  0.72648700    -0.77700
Co50       Co  0.83328950  0.25662235  0.72450911     1.51500
Co51       Co  0.70732865  0.22966045  0.83968837     1.51700
Co52       Co  0.70000964  0.21861764  0.69808415     1.51600
Co53       Co  0.81825187  0.14738768  0.81014453     1.51500
O54         O  0.76455252  0.21380269  0.76815517    -1.39600
C55         C  0.87212889  0.12882986  0.70869573     1.12000
C56         C  0.63458144  0.14319223  0.77018019     1.12100
C57         C  0.79453277  0.19892953  0.61957724     1.12000
C58         C  0.71873562  0.10633544  0.86529640     1.12000
O59         O  0.65358398  0.73966430  0.15185690    -0.77700
O60         O  0.81531553  0.75504685  0.13070548    -0.77700
O61         O  0.69569086  0.88646295  0.21355960    -0.77700
O62         O  0.79758886  0.62262695  0.22816601    -0.77600
O63         O  0.73228414  0.84276099  0.13771329    -0.77700
O64         O  0.74035153  0.65390382  0.15598843    -0.77700
O65         O  0.86980997  0.70406317  0.19627182    -0.77700
O66         O  0.61400140  0.80549220  0.21023088    -0.77700
C67         C  0.61859046  0.78354236  0.15883349     1.12000
C68         C  0.85590424  0.71709257  0.14305905     1.11900
C69         C  0.70180526  0.88419831  0.15917251     1.12100
C70         C  0.78101237  0.61841771  0.17530727     1.11900
O71         O  0.70634776  0.63196327  0.28406233    -0.77700
O72         O  0.79900857  0.88171868  0.24614589    -0.77700
O73         O  0.67104356  0.76754849  0.32919348    -0.77700
O74         O  0.84277425  0.76274326  0.30887232    -0.77600
O75         O  0.88298528  0.79941226  0.23198454    -0.77700
O76         O  0.61798582  0.71335286  0.27304723    -0.77700
O77         O  0.76806315  0.68369891  0.33597435    -0.77600
O78         O  0.75183705  0.84450648  0.32055023    -0.77700
Co79       Co  0.68436988  0.68984682  0.21547461     1.51500
Co80       Co  0.80185728  0.81442357  0.18821794     1.51700
Co81       Co  0.68712083  0.81994539  0.26733823     1.51600
Co82       Co  0.81457603  0.69860604  0.26648924     1.51500
O83         O  0.74644783  0.75565705  0.23315384    -1.39600
C84         C  0.73246478  0.64288527  0.33332709     1.12000
C85         C  0.78973767  0.87883427  0.30104958     1.12100
C86         C  0.63134794  0.73170487  0.32380166     1.12000
C87         C  0.88600482  0.78621859  0.28590756     1.12000
C88         C  0.52187254  0.01512398  0.03261110     0.04800
C89         C  0.47645380  0.97170234  0.03851209     0.04800
C90         C  0.42888588  0.96751523  0.99179646     0.04800
C91         C  0.43140730  0.00728142  0.93913019     0.04800
C92         C  0.47374501  0.05512358  0.93886007     0.04800
C93         C  0.51656096  0.05896945  0.98747001     0.04800
N94         N  0.57725178  0.01344890  0.07010548    -0.01000
C95         C  0.63227043  0.99394173  0.04853875     0.01600
C96         C  0.67455243  0.03580314  0.05805859    -0.21300
C97         C  0.65130883  0.07083775  0.10062911    -0.21500
C98         C  0.59113729  0.05721332  0.10754566     0.01500
H99         H  0.72270704  0.03168355  0.04859616     0.15300
H100        H  0.67720960  0.10366151  0.12079767     0.15300
N101        N  0.56039278  0.10510789  0.98847882    -0.01000
C102        C  0.55011042  0.15957756  0.01049460     0.01600
C103        C  0.55930447  0.19828479  0.96582511    -0.21300
C104        C  0.59907549  0.16979483  0.92938949    -0.21500
C105        C  0.60048224  0.11129452  0.94516685     0.01500
H106        H  0.55599233  0.24522361  0.96899967     0.15300
H107        H  0.62368538  0.19349439  0.89963362     0.15300
N108        N  0.39148598  0.00193804  0.88630247    -0.01000
C109        C  0.35420979  0.04602299  0.86653457     0.01600
C110        C  0.29422484  0.03320627  0.87517361    -0.21300
C111        C  0.29616561  0.97526692  0.86563475    -0.21500
C112        C  0.35720355  0.95687237  0.87128841     0.01500
H113        H  0.25471522  0.06085188  0.86332157     0.15300
H114        H  0.25684474  0.95214116  0.85384842     0.15300
N115        N  0.47218664  0.10185768  0.89185490    -0.01000
C116        C  0.43794930  0.15348514  0.89271172     0.01600
C117        C  0.46057261  0.19531044  0.85681479    -0.21300
C118        C  0.50451235  0.16880980  0.82550802    -0.21500
C119        C  0.51304910  0.11312442  0.84762689     0.01500
H120        H  0.44102124  0.23838804  0.84784272     0.15300
H121        H  0.52424159  0.18767522  0.78732186     0.15300
N122        N  0.47937510  0.93321087  0.09193563    -0.01000
C123        C  0.53260455  0.90568527  0.11062947     0.01600
C124        C  0.54706875  0.92130537  0.16716568    -0.21300
C125        C  0.49908199  0.95497480  0.18606368    -0.21500
C126        C  0.45359352  0.94887072  0.14433993     0.01500
H127        H  0.58330773  0.90442501  0.19527852     0.15300
H128        H  0.49204704  0.96402277  0.23201922     0.15300
N129        N  0.37977674  0.92396561  0.99796186    -0.01000
C130        C  0.36740446  0.90028749  0.05105162     0.01600
C131        C  0.32083509  0.93425951  0.07647959    -0.21300
C132        C  0.29102415  0.96238606  0.03123470    -0.21500
C133        C  0.32029092  0.93876549  0.98388534     0.01500
H134        H  0.29733539  0.92334307  0.11611813     0.15300
H135        H  0.24297412  0.97487836  0.03271275     0.15300
C136        C  0.95919700  0.47617830  0.04644035     0.04800
C137        C  0.97007310  0.42207992  0.01243721     0.04800
C138        C  0.01836334  0.42225129  0.96484455     0.04800
C139        C  0.05103709  0.47643608  0.95507825     0.04800
C140        C  0.05188229  0.52094770  0.99948299     0.04800
C141        C  0.00461824  0.52105910  0.04401339     0.04800
N142        N  0.10083742  0.56546300  0.99805707    -0.01000
C143        C  0.10473987  0.61739807  0.96668876     0.01600
C144        C  0.15825406  0.64383060  0.97971087    -0.21300
C145        C  0.19278997  0.60757080  0.01311970    -0.21500
C146        C  0.15584007  0.56411777  0.02934224     0.01500
H147        H  0.16742106  0.68922725  0.97612214     0.15300
H148        H  0.23664295  0.61755928  0.03178017     0.15300
N149        N  0.07586690  0.49253936  0.89711287    -0.01000
C150        C  0.04061435  0.53216214  0.86569307     0.01600
C151        C  0.00554256  0.50412042  0.82491905    -0.21300
C152        C  0.04053263  0.45574951  0.81255625    -0.27500
C153        C  0.08905412  0.45527820  0.85252661     0.01500
H154        H  0.97493029  0.52505740  0.79271728     0.15300
H155        H  0.03847901  0.43292325  0.77144712     0.15300
N156        N  0.99926663  0.56963713  0.08463936    -0.01000
C157        C  0.04971754  0.59062017  0.11062010     0.01600
C158        C  0.05957922  0.64548384  0.08827312    -0.21300
C159        C  0.00942248  0.66169673  0.05583677    -0.21500
C160        C  0.96875564  0.61882743  0.06567912     0.01500
H161        H  0.09442574  0.67442560  0.10021299     0.15300
H162        H  0.99858757  0.70631361  0.04285735     0.15300
N163        N  0.90101961  0.48842096  0.08043945    -0.01000
C164        C  0.85113765  0.51688167  0.05368568     0.01600
C165        C  0.80429154  0.47887944  0.04892055    -0.21300
C166        C  0.81375096  0.44152693  0.09499836    -0.21500
C167        C  0.87225138  0.44946971  0.11589967     0.01500
H168        H  0.75895755  0.48972747  0.03132174     0.15300
H169        H  0.77867756  0.41721705  0.11514271     0.15300
N170        N  0.03508917  0.37227453  0.92467228    -0.01000
C171        C  0.01117846  0.31955350  0.92458853     0.01600
C172        C  0.05273160  0.27801592  0.94864133    -0.21300
C173        C  0.10685255  0.30428038  0.95074340    -0.21500
C174        C  0.09354955  0.35132464  0.91417555     0.01500
H175        H  0.04811829  0.23161356  0.95247448     0.15300
H176        H  0.14983679  0.27980593  0.95480921     0.15300
N177        N  0.93233383  0.37119008  0.02958580    -0.01000
C178        C  0.92579825  0.32017095  0.00083194     0.01600
C179        C  0.95939256  0.27558720  0.03037151    -0.21300
C180        C  0.97702672  0.29817541  0.08234347    -0.21500
C181        C  0.93786170  0.34641407  0.08445346     0.01500
H182        H  0.96359921  0.22995806  0.01986155     0.15300
H183        H  0.99273280  0.27110107  0.11896863     0.15300
C184        C  0.47909799  0.51301434  0.58104480     0.04800
C185        C  0.53051117  0.46999962  0.58530641     0.04800
C186        C  0.57681126  0.46633239  0.54125204     0.04800
C187        C  0.57357731  0.50844112  0.49320684     0.04800
C188        C  0.52304981  0.55028416  0.48746209     0.04800
C189        C  0.47298667  0.55086738  0.52931340     0.04800
N190        N  0.53416179  0.42601509  0.63195211    -0.01000
C191        C  0.56121921  0.43528933  0.68477989     0.01600
C192        C  0.51631085  0.44041059  0.72639961    -0.21300
C193        C  0.47183757  0.40648724  0.70497637    -0.21500
C194        C  0.48567994  0.39563725  0.64695875     0.01500
H195        H  0.52294505  0.44797037  0.77270873     0.15300
H196        H  0.43813057  0.38585670  0.73106393     0.15300
N197        N  0.41611982  0.58746444  0.51733211    -0.01000
C198        C  0.37579415  0.57272417  0.47424184     0.01600
C199        C  0.32830076  0.54397060  0.49812343    -0.21300
C200        C  0.32430139  0.56752370  0.55219446    -0.21500
C201        C  0.37505552  0.60170088  0.55882549     0.01500
H202        H  0.28879678  0.52901014  0.47453574     0.15300
H203        H  0.28228673  0.57123380  0.57624782     0.15300
N204        N  0.61767644  0.50593930  0.44538642    -0.01000
C205        C  0.67292071  0.53073918  0.44546825     0.01600
C206        C  0.71666647  0.48590903  0.44440398    -0.21300
C207        C  0.68835812  0.44050689  0.41847316    -0.21500
C208        C  0.62702204  0.45726646  0.41418153     0.01500
H209        H  0.76553626  0.49064553  0.44368709     0.15300
H210        H  0.71237481  0.40276753  0.40282870     0.15300
N211        N  0.52528081  0.59226700  0.43826763    -0.01000
C212        C  0.47435113  0.61974417  0.41627754     0.01600
C213        C  0.46900220  0.67537222  0.43988046    -0.21300
C214        C  0.52319117  0.68400912  0.46762434    -0.21500
C215        C  0.55983969  0.63943223  0.44503043     0.01500
H216        H  0.43703060  0.71020223  0.42646808     0.15300
H217        H  0.53705423  0.72682738  0.47950092     0.15300
N218        N  0.42821968  0.51040394  0.62311449    -0.01000
C219        C  0.42071158  0.53655955  0.67721052     0.01600
C220        C  0.38336569  0.50213930  0.71022966    -0.21300
C221        C  0.35199311  0.47041440  0.67089663    -0.21500
C222        C  0.38362643  0.47132225  0.61953852     0.01500
H223        H  0.36554321  0.51197702  0.75330576     0.15300
H224        H  0.30716162  0.45541471  0.67842832     0.15300
N225        N  0.62114677  0.41518920  0.54096773    -0.01000
C226        C  0.67419561  0.40224791  0.57316794     0.01600
C227        C  0.70368422  0.35242860  0.55333299    -0.21300
C228        C  0.66627375  0.32873644  0.51364171    -0.21500
C229        C  0.61743391  0.36749175  0.50558743     0.01500
H230        H  0.74764537  0.33389628  0.56737632     0.15300
H231        H  0.67333202  0.28632668  0.49458366     0.15300
C232        C  0.07547688  0.99948161  0.51714938     0.04800
C233        C  0.06700661  0.94948123  0.48211531     0.04800
C234        C  0.01504822  0.95004799  0.44099693     0.04800
C235        C  0.96485635  0.99373557  0.44513602     0.04800
C236        C  0.97171361  0.04287791  0.48432709     0.04800
C237        C  0.02514620  0.04155668  0.52353181     0.04800
N238        N  0.02654939  0.07874629  0.57463013    -0.01000
C239        C  0.07459171  0.11092498  0.58658147     0.01600
C240        C  0.09336648  0.10176925  0.64439223    -0.21300
C241        C  0.05183432  0.06713012  0.66876558    -0.21500
C242        C  0.00544282  0.06325240  0.62771498     0.01500
H243        H  0.12927913  0.11884928  0.66998946     0.15300
H244        H  0.04837315  0.05994073  0.71551844     0.15300
N245        N  0.13044734  0.00087459  0.55542653    -0.01000
C246        C  0.18232086  0.03282601  0.55218883     0.01600
C247        C  0.22116400  0.01925022  0.59868092    -0.21300
C248        C  0.19121328  0.98402753  0.63510733    -0.21500
C249        C  0.13690249  0.97149991  0.60736404     0.01500
H250        H  0.26492376  0.03711272  0.60799341     0.15300
H251        H  0.20513199  0.97673706  0.68004084     0.15300
N252        N  0.10805046  0.89692101  0.49266036    -0.01000
C253        C  0.09919450  0.84872619  0.52740942     0.01600
C254        C  0.14364542  0.80561234  0.51863685    -0.21300
C255        C  0.18597650  0.82835243  0.48469933    -0.21500
C256        C  0.16358389  0.88275635  0.46840704     0.01500
H257        H  0.14533239  0.76142870  0.53505729     0.15300
H258        H  0.22775050  0.80636565  0.47094684     0.15300
N259        N  0.92691741  0.09425472  0.48170289    -0.01000
C260        C  0.93593597  0.13756830  0.44131138     0.01600
C261        C  0.96419601  0.18248242  0.46878600    -0.21300
C262        C  0.94791683  0.17782810  0.52576789    -0.21500
C263        C  0.91659080  0.12696645  0.52991931     0.01500
H264        H  0.97473502  0.22357635  0.44882862     0.15300
H265        H  0.94601882  0.21374495  0.55598884     0.15300
N266        N  0.90508878  0.98370261  0.41535048    -0.01000
C267        C  0.86100677  0.02705410  0.41318879     0.01600
C268        C  0.82028762  0.01995630  0.45829641    -0.21300
C269        C  0.83016558  0.96411631  0.47742968    -0.21500
C270        C  0.87116397  0.94049057  0.43808944     0.01500
H271        H  0.77922886  0.04608365  0.46637006     0.15300
H272        H  0.79570075  0.94071565  0.49998499     0.15300
N273        N  0.01396231  0.90859209  0.39261904    -0.01000
C274        C  0.98141609  0.86068264  0.39872035     0.01600
C275        C  0.01969319  0.81510169  0.41738089    -0.21300
C276        C  0.07283470  0.82771050  0.39165390    -0.21500
C277        C  0.06640137  0.88480055  0.37113081     0.01500
H278        H  0.00725206  0.77139311  0.42795824     0.15300
H279        H  0.10704762  0.79507409  0.38151457     0.15300
O280        O  0.29394498  0.18493088  0.58756759    -0.77700
O281        O  0.26175013  0.33118046  0.59886570    -0.77700
O282        O  0.12389693  0.21725918  0.66025537    -0.77700
O283        O  0.39840754  0.27841380  0.72651085    -0.77600
O284        O  0.17801734  0.25941277  0.59887012    -0.77700
O285        O  0.37891585  0.25535352  0.63828598    -0.77700
O286        O  0.32517531  0.35987467  0.66835722    -0.77700
O287        O  0.21693929  0.13986481  0.62641443    -0.77700
C288        C  0.24887875  0.15153384  0.58185438     1.12000
C289        C  0.30760108  0.35838857  0.61419912     1.11900
C290        C  0.13287545  0.23128413  0.60823722     1.12100
C291        C  0.41621058  0.27248860  0.67507968     1.11900
O292        O  0.35982566  0.18914893  0.75961448    -0.77700
O293        O  0.14251893  0.30040375  0.72482177    -0.77700
O294        O  0.25516363  0.13286541  0.75273275    -0.77700
O295        O  0.24382363  0.35516710  0.77762707    -0.77600
O296        O  0.21608035  0.39014912  0.69509773    -0.77700
O297        O  0.31137812  0.11166448  0.68019200    -0.77700
O298        O  0.30577701  0.25781721  0.80647982    -0.77600
O299        O  0.17779662  0.22186125  0.77401307    -0.77700
Co300      Co  0.33057848  0.19278678  0.66820116     1.51500
Co301      Co  0.20284062  0.31386380  0.65666600     1.51700
Co302      Co  0.19827005  0.18277500  0.70373090     1.51600
Co303      Co  0.31255985  0.30818604  0.74086404     1.51500
O304        O  0.26066972  0.24947045  0.69228154    -1.39600
C305        C  0.33389389  0.20938711  0.80726601     1.12000
C306        C  0.15476033  0.27255755  0.77354691     1.12100
C307        C  0.29367084  0.09910599  0.72922310     1.12000
C308        C  0.21393524  0.39382779  0.74942230     1.12000
O309        O  0.69680060  0.12253290  0.31164855    -0.77700
O310        O  0.75553610  0.38347995  0.21359038    -0.77700
O311        O  0.80974581  0.22491592  0.19861225    -0.77700
O312        O  0.79854322  0.24685578  0.35206452    -0.77600
O313        O  0.76020415  0.29105702  0.14508303    -0.77700
O314        O  0.72073887  0.20400615  0.38895520    -0.77700
O315        O  0.81373850  0.33258289  0.27369509    -0.77700
O316        O  0.78277178  0.14303418  0.27391350    -0.77700
C317        C  0.75297459  0.11095367  0.30642206     1.12000
C318        C  0.80825103  0.37331653  0.23611999     1.11900
C319        C  0.81035986  0.26732428  0.16458054     1.12100
C320        C  0.77874259  0.20868995  0.38507526     1.11900
O321        O  0.60935073  0.27188896  0.33700229    -0.77700
O322        O  0.62663880  0.27475306  0.16980726    -0.77700
O323        O  0.66193525  0.13253802  0.21205661    -0.77700
O324        O  0.69498307  0.38616856  0.30726947    -0.77600
O325        O  0.62815892  0.35703870  0.24464126    -0.77700
O326        O  0.59737751  0.19012615  0.25678369    -0.77700
O327        O  0.68055371  0.30528524  0.39131096    -0.77600
O328        O  0.69138779  0.21192558  0.13399170    -0.77700
Co329      Co  0.65855034  0.20293185  0.31918649     1.51500
Co330      Co  0.69240005  0.32100450  0.19815670     1.51700
Co331      Co  0.73627268  0.18389706  0.20916190     1.51600
Co332      Co  0.74557377  0.31216622  0.32609006     1.51500
O333        O  0.70872042  0.25509155  0.26310365    -1.39600
C334        C  0.62364866  0.29946790  0.38131809     1.12000
C335        C  0.63786800  0.23579541  0.13403472     1.12100
C336        C  0.60711748  0.14913568  0.22133911     1.12000
C337        C  0.64072724  0.38772440  0.28766302     1.12000
O338        O  0.36240396  0.64706424  0.25671025    -0.77700
O339        O  0.15433575  0.64497560  0.25813266    -0.77700
O340        O  0.30531166  0.71886422  0.36001614    -0.77700
O341        O  0.20225042  0.66781315  0.12560799    -0.77600
O342        O  0.24639217  0.65225303  0.32668120    -0.77700
O343        O  0.27069374  0.61935522  0.18043511    -0.77700
O344        O  0.11185928  0.70630312  0.19696346    -0.77700
O345        O  0.39259465  0.73055661  0.28519500    -0.77700
C346        C  0.40095150  0.67639612  0.28351563     1.12000
C347        C  0.11158098  0.65810588  0.22292878     1.11900
C348        C  0.28920177  0.66586730  0.35827327     1.12100
C349        C  0.22581702  0.61885087  0.14520389     1.11900
O350        O  0.30080325  0.71839632  0.10615150    -0.77700
O351        O  0.21171445  0.77514220  0.36341289    -0.77700
O352        O  0.33041156  0.82563710  0.22348663    -0.77700
O353        O  0.15794130  0.81943987  0.21011215    -0.77600
O354        O  0.12085038  0.76838587  0.28169124    -0.77700
O355        O  0.38283182  0.75366924  0.18371407    -0.77700
O356        O  0.24626339  0.79250409  0.13509893    -0.77600
O357        O  0.24516844  0.82886408  0.29595377    -0.77700
Co358      Co  0.32285200  0.68613564  0.18662013     1.51500
Co359      Co  0.18898438  0.71023576  0.30259922     1.51700
Co360      Co  0.31204116  0.77400683  0.28771368     1.51600
Co361      Co  0.18604794  0.74626343  0.17085296     1.51500
O362        O  0.25230168  0.72766647  0.23621490    -1.39600
C363        C  0.28467084  0.77147377  0.10113540     1.12000
C364        C  0.22096277  0.82762185  0.34468578     1.12100
C365        C  0.37457538  0.80826346  0.19357395     1.12000
C366        C  0.12141249  0.81513832  0.25205620     1.12000
C367        C  0.07532411  0.86147418  0.26599728    -0.13900
C368        C  0.08611847  0.89850005  0.31014416    -0.29100
H369        H  0.03080198  0.84318852  0.26595669     0.15100
H370        H  0.12496412  0.92557043  0.30630993     0.15700
C371        C  0.84091626  0.05693857  0.35718063    -0.13900
C372        C  0.78091382  0.06384500  0.34347329    -0.29100
H373        H  0.87454468  0.07717325  0.33047562     0.15100
H374        H  0.74862913  0.03952549  0.36818643     0.15700
C375        C  0.82436900  0.17048119  0.41876582    -0.13900
C376        C  0.88451759  0.16489688  0.40361659    -0.29100
H377        H  0.80795298  0.14591129  0.45513299     0.15100
H378        H  0.89879408  0.18896798  0.36551999     0.15700
C379        C  0.21603943  0.88897539  0.37451332    -0.13900
C380        C  0.19588886  0.91421876  0.42406771    -0.29100
H381        H  0.18213308  0.86148687  0.35924390     0.15100
H382        H  0.20763217  0.95858285  0.43301498     0.15700
C383        C  0.19667877  0.08022148  0.51020383    -0.13900
C384        C  0.23135534  0.12741130  0.52261996    -0.29100
H385        H  0.18145209  0.07469097  0.46522376     0.15100
H386        H  0.24397934  0.15358191  0.48538665     0.15700
C387        C  0.08936486  0.15657515  0.54461203    -0.13900
C388        C  0.09922741  0.21185029  0.55697041    -0.29100
H389        H  0.07800838  0.14760265  0.49926185     0.15100
H390        H  0.09897209  0.24136415  0.51959816     0.15700
C391        C  0.56675072  0.35515814  0.46573556    -0.13900
C392        C  0.57051114  0.32363859  0.41600342    -0.29100
H393        H  0.52205224  0.37265416  0.47781396     0.15100
H394        H  0.52655614  0.31745241  0.39474776     0.15700
C395        C  0.37327275  0.43426037  0.56821082    -0.13900
C396        C  0.33960265  0.38701856  0.56611472    -0.29100
H397        H  0.39586259  0.44577570  0.52815636     0.15100
H398        H  0.33473460  0.36720209  0.52337777     0.15700
C399        C  0.45143918  0.60912614  0.35551572    -0.13900
C400        C  0.45481242  0.65181905  0.31555376    -0.29100
H401        H  0.42006654  0.57467285  0.34874790     0.15100
H402        H  0.48906753  0.68369304  0.32306180     0.15700
C403        C  0.58963729  0.42275926  0.31279399    -0.13900
C404        C  0.58242965  0.44608014  0.36636406    -0.29100
H405        H  0.54856564  0.42450848  0.28535601     0.15100
H406        H  0.53733868  0.46571402  0.37383038     0.15700
C407        C  0.34912392  0.62318654  0.43927720    -0.13900
C408        C  0.31735279  0.61690261  0.39087455    -0.29100
H409        H  0.35320812  0.66666496  0.45604853     0.15100
H410        H  0.30964017  0.57335519  0.37532000     0.15700
C411        C  0.47496580  0.33827345  0.62168811    -0.13900
C412        C  0.47548131  0.29294231  0.65870546    -0.29100
H413        H  0.44779684  0.33725444  0.58181584     0.15100
H414        H  0.50782615  0.29309792  0.69534206     0.15700
C415        C  0.87738112  0.32816515  0.10902338    -0.13900
C416        C  0.87052824  0.28933479  0.15142435    -0.29100
H417        H  0.83733329  0.33800002  0.08186859     0.15100
H418        H  0.90957146  0.27291520  0.17719540     0.15700
C419        C  0.14978418  0.29807243  0.83252808    -0.13900
C420        C  0.10433188  0.33341142  0.84998873    -0.29100
H421        H  0.18462695  0.28333566  0.86416500     0.15100
H422        H  0.06888401  0.34439402  0.81764832     0.15700
C423        C  0.89117337  0.43680384  0.17885129    -0.13900
C424        C  0.86438065  0.40883474  0.22527869    -0.29100
H425        H  0.93485010  0.45486646  0.18964244     0.15100
H426        H  0.89340781  0.40795032  0.26435569     0.15700
C427        C  0.06633319  0.57765916  0.17295432    -0.13900
C428        C  0.05984813  0.62051395  0.21213449    -0.29100
H429        H  0.10060441  0.54348324  0.18173052     0.15100
H430        H  0.01788605  0.64708096  0.20674213     0.15700
C431        C  0.15382723  0.43965442  0.83337538    -0.13900
C432        C  0.16769049  0.43527711  0.77570304    -0.29100
H433        H  0.18616035  0.42235674  0.86622682     0.15100
H434        H  0.13665948  0.45660793  0.74400383     0.15700
C435        C  0.17046467  0.53507739  0.08588668    -0.13900
C436        C  0.20252808  0.55848465  0.13182467    -0.29100
H437        H  0.15532537  0.49115847  0.09088194     0.15100
H438        H  0.21311110  0.52757748  0.16717612     0.15700
C439        C  0.36165657  0.83512533  0.05772812    -0.13900
C440        C  0.30579348  0.81191891  0.05714558    -0.29100
H441        H  0.40152242  0.80808299  0.06975218     0.15100
H442        H  0.26728707  0.83985880  0.04347854     0.15700
C443        C  0.41856008  0.85052815  0.17265026    -0.13900
C444        C  0.40869595  0.90939271  0.17170877    -0.29100
H445        H  0.45957503  0.83147439  0.15402055     0.15100
H446        H  0.36897513  0.92888090  0.19268641     0.15700
C447        C  0.37281380  0.15868334  0.90538169    -0.13900
C448        C  0.32911927  0.17812933  0.86567071    -0.29100
H449        H  0.35811622  0.13922700  0.94591035     0.15100
H450        H  0.28274844  0.17728828  0.88140332     0.15700
C451        C  0.36356962  0.06578457  0.80492157    -0.13900
C452        C  0.32447675  0.05209168  0.76123270    -0.29100
H453        H  0.39571784  0.09885228  0.79756876     0.15100
H454        H  0.29769498  0.01385786  0.76348867     0.15700
C455        C  0.59558085  0.17768521  0.05530424    -0.13900
C456        C  0.58680573  0.21800147  0.09567087    -0.29100
H457        H  0.64258518  0.16420239  0.04701524     0.15100
H458        H  0.54150467  0.23765126  0.10133537     0.15700
C459        C  0.54598293  0.08528448  0.14772534    -0.13900
C460        C  0.55288023  0.12184131  0.19387535    -0.29100
H461        H  0.49938163  0.07346290  0.13889164     0.15100
H462        H  0.51027954  0.13546132  0.21418905     0.15700
C463        C  0.82393444  0.91555188  0.34132551    -0.13900
C464        C  0.83745696  0.90103597  0.39788410    -0.29100
H465        H  0.84434525  0.95254866  0.32146210     0.15100
H466        H  0.81895904  0.86213454  0.41653461     0.15700
C467        C  0.67599523  0.93334792  0.12579686    -0.13900
C468        C  0.65898516  0.93673837  0.06884893    -0.29100
H469        H  0.66606288  0.97047840  0.15352181     0.15100
H470        H  0.66594157  0.90064626  0.03920127     0.15700
C471        C  0.88915766  0.69017304  0.09528064    -0.13900
C472        C  0.92125372  0.64060634  0.10478516    -0.29100
H473        H  0.88959365  0.71207799  0.05301212     0.15100
H474        H  0.91884331  0.61871467  0.14698992     0.15700
C475        C  0.94444029  0.84813014  0.34562137    -0.13900
C476        C  0.93754736  0.79530073  0.32380867    -0.29100
H477        H  0.92912384  0.88488547  0.31871255     0.15100
H478        H  0.95639028  0.75681332  0.34605646     0.15700
C479        C  0.72380630  0.60904275  0.38840044    -0.13900
C480        C  0.68320264  0.56772010  0.39244998    -0.29100
H481        H  0.75043032  0.61961072  0.42703036     0.15100
H482        H  0.65808276  0.55683343  0.35293182     0.15700
C483        C  0.80981553  0.57111680  0.14030513    -0.13900
C484        C  0.82161095  0.57035946  0.08177986    -0.29100
H485        H  0.82709010  0.53554123  0.16764196     0.15100
H486        H  0.80498717  0.60624905  0.05393108     0.15700
C487        C  0.58521334  0.80309336  0.10319814    -0.13900
C488        C  0.55492073  0.85184307  0.08198484    -0.29100
H489        H  0.59080894  0.77047297  0.06931748     0.15100
H490        H  0.53940436  0.84938220  0.03666048     0.15700
C491        C  0.60541827  0.71262634  0.37889717    -0.13900
C492        C  0.59000180  0.65826511  0.38959176    -0.29100
H493        H  0.60685067  0.74331211  0.41454202     0.15100
H494        H  0.58939072  0.62895282  0.35277001     0.15700
C495        C  0.96008805  0.25117610  0.85866595    -0.13900
C496        C  0.96636805  0.30541861  0.87801128    -0.29100
H497        H  0.98998246  0.21576527  0.87434397     0.15100
H498        H  0.93692755  0.34065762  0.86073618     0.15700
C499        C  0.91264098  0.08427871  0.68345697    -0.13900
C500        C  0.95611266  0.10101246  0.64905104    -0.29100
H501        H  0.90778110  0.03862354  0.69375165     0.15100
H502        H  0.96011627  0.14712840  0.64019938     0.15700
C503        C  0.68752557  0.05754498  0.89072785    -0.13900
C504        C  0.63694704  0.06008709  0.92308138    -0.29100
H505        H  0.70472870  0.01458466  0.87833166     0.15100
H506        H  0.62006547  0.01813402  0.93502861     0.15700
C507        C  0.85307799  0.25252613  0.95632678    -0.13900
C508        C  0.87116239  0.30765823  0.96310006    -0.29100
H509        H  0.87424480  0.21765690  0.98231546     0.15100
H510        H  0.84945918  0.34279220  0.93749299     0.15700
C511        C  0.60302415  0.08667573  0.78239567    -0.13900
C512        C  0.55668103  0.07235616  0.81890230    -0.29100
H513        H  0.62453747  0.04969151  0.76053955     0.15100
H514        H  0.54806965  0.02660985  0.82427932     0.15700
C515        C  0.60583582  0.38716174  0.70134719    -0.13900
C516        C  0.62042070  0.37020008  0.75625849    -0.29100
H517        H  0.61674534  0.35677390  0.66660164     0.15100
H518        H  0.61245881  0.39888069  0.79299789     0.15700
C519        C  0.69955759  0.43236639  0.62459694    -0.13900
C520        C  0.73404970  0.40650180  0.66950880    -0.29100
H521        H  0.69123683  0.47907404  0.62583631     0.15100
H522        H  0.75248509  0.43672919  0.70073831     0.15700
C523        C  0.82431016  0.17919659  0.56563952    -0.13900
C524        C  0.85690701  0.12834348  0.56117547    -0.29100
H525        H  0.83593854  0.21480194  0.53704314     0.15100
H526        H  0.84496274  0.09087976  0.58677523     0.15700
C527        C  0.30486247  0.84398013  0.93255855    -0.13900
C528        C  0.28159956  0.89504813  0.95273650    -0.29100
H529        H  0.35320038  0.83315301  0.93802640     0.15100
H530        H  0.23306158  0.90532939  0.94696897     0.15700
C531        C  0.06374889  0.69872872  0.89738132    -0.13900
C532        C  0.05628808  0.65160093  0.93375801    -0.29100
H533        H  0.02102679  0.71808503  0.88027399     0.15100
H534        H  0.01014769  0.63795477  0.93936826     0.15700
C535        C  0.08536408  0.91580736  0.68720087    -0.13900
C536        C  0.08533181  0.94501606  0.63633835    -0.29100
H537        H  0.04035867  0.90677253  0.70327011     0.15100
H538        H  0.04067394  0.95405499  0.61658038     0.15700
C539        C  0.38528825  0.90290370  0.84977820    -0.13900
C540        C  0.36268319  0.86510212  0.81136629    -0.29100
H541        H  0.43282160  0.89531676  0.86295337     0.15100
H542        H  0.39648038  0.83172622  0.79894165     0.15700
C543        C  0.36399396  0.66350160  0.57821327    -0.13900
C544        C  0.30756282  0.68859424  0.57094972    -0.29100
H545        H  0.39534109  0.68077555  0.61012506     0.15100
H546        H  0.27820594  0.67200337  0.53681142     0.15700
C547        C  0.05526940  0.80217512  0.61640044    -0.13900
C548        C  0.04952074  0.83855253  0.56868219    -0.29100
H549        H  0.01353431  0.79375881  0.63918487     0.15100
H550        H  0.00506486  0.85886202  0.55834584     0.15700
C551        C  0.37935956  0.62527517  0.72896433    -0.13900
C552        C  0.38387238  0.59207055  0.68180549    -0.29100
H553        H  0.41631325  0.62455836  0.76121188     0.15100
H554        H  0.34127906  0.59193743  0.65780662     0.15700
C555        C  0.13337791  0.58078377  0.83687848    -0.13900
C556        C  0.07215266  0.57943306  0.83550166    -0.29100
H557        H  0.16078638  0.55179740  0.86533646     0.15100
H558        H  0.04543555  0.60951364  0.80731772     0.15700
loop_ 
_geom_bond_atom_site_label_1 
_geom_bond_atom_site_label_2 
_geom_bond_distance 
_geom_bond_site_symmetry_2 
_ccdc_geom_bond_type 
O1            C9   1.252       .  A
O1          Co21   1.918       .  S
O2           C10   1.248       .  A
O2          Co22   1.893       .  S
O3           C11   1.251       .  A
O3          Co23   2.002       .  S
O4           C12   1.247       .  A
O4          Co24   1.993       .  S
O5           C11   1.248       .  A
O5          Co22   1.995       .  S
O6           C12   1.247       .  A
O6          Co21   1.968       .  S
O7           C10   1.298       .  A
O7          Co24   2.108       .  S
O8            C9   1.305       .  A
O8          Co23   2.107       .  S
C9          C551   1.491       .  S
C10         C540   1.501       .  S
C11         C544   1.474       .  S
C12         C527   1.472       .  S
O13          C26   1.289       .  A
O13         Co21   2.082       .  S
O14          C27   1.285       .  A
O14         Co22   2.058       .  S
O15          C28   1.247       .  A
O15         Co23   1.953       .  S
O16          C29   1.236       .  A
O16         Co24   1.922       .  S
O17          C29   1.259       .  A
O17         Co22   2.013       .  S
O18          C28   1.249       .  A
O18         Co21   1.992       .  S
O19          C26   1.265       .  A
O19         Co24   1.965       .  S
O20          C27   1.272       .  A
O20         Co23   1.983       .  S
Co21         O25   2.117       .  S
Co22         O25   2.127       .  S
Co23         O25   2.081       .  S
Co24         O25   2.089       .  S
C26         C531   1.529       .  S
C27         C547   1.514       .  S
C28         C555   1.451       .  S
C29         C535   1.476       .  S
O30          C38   1.271       .  A
O30         Co50   1.980       .  S
O31          C39   1.262       .  A
O31         Co51   1.979       .  S
O32          C40   1.269       .  A
O32         Co52   2.015       .  S
O33          C41   1.262       .  A
O33         Co53   2.018       .  S
O34          C40   1.244       .  A
O34         Co51   1.940       .  S
O35          C41   1.258       .  A
O35         Co50   1.958       .  S
O36          C39   1.275       .  A
O36         Co53   2.039       .  S
O37          C38   1.289       .  A
O37         Co52   2.096       .  S
C38         C520   1.531       .  S
C39         C507   1.477       .  S
C40         C516   1.465       .  S
C41         C495   1.463       .  S
O42          C55   1.287       .  A
O42         Co50   2.054       .  S
O43          C56   1.283       .  A
O43         Co51   2.094       .  S
O44          C57   1.258       .  A
O44         Co52   2.005       .  S
O45          C58   1.249       .  A
O45         Co53   1.953       .  S
O46          C58   1.252       .  A
O46         Co51   2.023       .  S
O47          C57   1.256       .  A
O47         Co50   1.997       .  S
O48          C55   1.245       .  A
O48         Co53   1.914       .  S
O49          C56   1.264       .  A
O49         Co52   1.978       .  S
Co50         O54   2.100       .  S
Co51         O54   2.105       .  S
Co52         O54   2.118       .  S
Co53         O54   2.107       .  S
C55         C499   1.460       .  S
C56         C511   1.528       .  S
C57         C523   1.472       .  S
C58         C503   1.463       .  S
O59          C67   1.257       .  A
O59         Co79   1.939       .  S
O60          C68   1.249       .  A
O60         Co80   1.923       .  S
O61          C69   1.254       .  A
O61         Co81   1.975       .  S
O62          C70   1.261       .  A
O62         Co82   2.011       .  S
O63          C69   1.252       .  A
O63         Co80   1.983       .  S
O64          C70   1.257       .  A
O64         Co79   2.010       .  S
O65          C68   1.279       .  A
O65         Co82   2.035       .  S
O66          C67   1.287       .  A
O66         Co81   2.090       .  S
C67         C487   1.512       .  S
C68         C471   1.453       .  S
C69         C467   1.450       .  S
C70         C483   1.485       .  S
O71          C84   1.286       .  A
O71         Co79   2.087       .  S
O72          C85   1.276       .  A
O72         Co80   2.048       .  S
O73          C86   1.232       .  A
O73         Co81   1.899       .  S
O74          C87   1.235       .  A
O74         Co82   1.895       .  S
O75          C87   1.267       .  A
O75         Co80   2.042       .  S
O76          C86   1.272       .  A
O76         Co79   2.041       .  S
O77          C84   1.250       .  A
O77         Co82   1.940       .  S
O78          C85   1.257       .  A
O78         Co81   1.959       .  S
Co79         O83   2.119       .  S
Co80         O83   2.129       .  S
Co81         O83   2.097       .  S
Co82         O83   2.079       .  S
C84         C479   1.495       .  S
C85         C463   1.473       .  S
C86         C491   1.463       .  S
C87         C476   1.436       .  S
C88          C89   1.450   1_545  A
C88          C93   1.438   1_554  A
C88          N94   1.474       .  S
C89          C90   1.487   1_554  A
C89         N122   1.502       .  S
C90          C91   1.510   1_565  A
C90         N129   1.512       .  S
C91          C92   1.473       .  A
C91         N108   1.488       .  S
C92          C93   1.448       .  A
C92         N115   1.514       .  S
C93         N101   1.465       .  S
N94          C98   1.369       .  A
N94          C95   1.372   1_545  A
C95         C468   1.488       .  S
C95          C96   1.383   1_565  A
C96          C97   1.362       .  A
C96          H99   1.083       .  S
C97          C98   1.383       .  A
C97         H100   1.069       .  S
C98         C459   1.495       .  S
N101        C105   1.347       .  A
N101        C102   1.368   1_556  A
C102        C455   1.492       .  S
C102        C103   1.374   1_554  A
C103        C104   1.369       .  A
C103        H106   1.085       .  S
C104        C105   1.392       .  A
C104        H107   1.042       .  S
C105        C504   1.495       .  S
N108        C112   1.352   1_545  A
N108        C109   1.347       .  A
C109        C451   1.497       .  S
C109        C110   1.379       .  A
C110        C111   1.354   1_545  A
C110        H113   1.084       .  S
C111        C112   1.392       .  A
C111        H114   1.066       .  S
C112        C539   1.458       .  S
N115        C119   1.394       .  A
N115        C116   1.381       .  A
C116        C447   1.464       .  S
C116        C117   1.375       .  A
C117        C118   1.341       .  A
C117        H120   1.082       .  S
C118        C119   1.380       .  A
C118        H121   1.078       .  S
C119        C512   1.480       .  S
N122        C126   1.378       .  A
N122        C123   1.366       .  A
C123        C488   1.478       .  S
C123        C124   1.380       .  A
C124        C125   1.361       .  A
C124        H127   1.072       .  S
C125        C126   1.381       .  A
C125        H128   1.085       .  S
C126        C444   1.510       .  S
N129        C133   1.368       .  A
N129        C130   1.363   1_556  A
C130        C439   1.520       .  S
C130        C131   1.399       .  A
C131        C132   1.359       .  A
C131        H134   1.084       .  S
C132        C133   1.373   1_554  A
C132        H135   1.083       .  S
C133        C528   1.519       .  S
C136        C137   1.488       .  A
C136        C141   1.469   1_655  A
C136        N163   1.525       .  S
C137        C138   1.533   1_654  A
C137        N177   1.518       .  S
C138        C139   1.484       .  A
C138        N170   1.517       .  S
C139        C140   1.450       .  A
C139        N149   1.492       .  S
C140        C141   1.467   1_556  A
C140        N142   1.518       .  S
C141        N156   1.463   1_455  S
N142        C146   1.392   1_556  A
N142        C143   1.397       .  A
C143        C532   1.487       .  S
C143        C144   1.376       .  A
C144        C145   1.331   1_556  A
C144        H147   1.077       .  S
C145        C146   1.369       .  A
C145        H148   1.081       .  S
C146        C435   1.474       .  S
N149        C153   1.366       .  A
N149        C150   1.363       .  A
C150        C556   1.487       .  S
C150        C151   1.381       .  A
C151        C152   1.362       .  A
C151        H154   1.084   1_455  S
C152        C153   1.391       .  A
C152        H155   1.082       .  S
C153        C431   1.525       .  S
N156        C160   1.356       .  A
N156        C157   1.357   1_655  A
C157        C427   1.489       .  S
C157        C158   1.387       .  A
C158        C159   1.354       .  A
C158        H161   1.070       .  S
C159        C160   1.380   1_455  A
C159        H162   1.084   1_455  S
C160        C472   1.461       .  S
N163        C167   1.384       .  A
N163        C164   1.383       .  A
C164        C484   1.521       .  S
C164        C165   1.383       .  A
C165        C166   1.362       .  A
C165        H168   1.085       .  S
C166        C167   1.382       .  A
C166        H169   1.079       .  S
C167        C423   1.513       .  S
N170        C174   1.378       .  A
N170        C171   1.344       .  A
C171        C496   1.484   1_455  S
C171        C172   1.397       .  A
C172        C173   1.357       .  A
C172        H175   1.082       .  S
C173        C174   1.382       .  A
C173        H176   1.081       .  S
C174        C420   1.547       .  S
N177        C181   1.375       .  A
N177        C178   1.364       .  A
C178        C508   1.504   1_554  S
C178        C179   1.401       .  A
C179        C180   1.358       .  A
C179        H182   1.082       .  S
C180        C181   1.378       .  A
C180        H183   1.083       .  S
C181        C415   1.525       .  S
C184        C185   1.472       .  A
C184        C189   1.464       .  A
C184        N218   1.490       .  S
C185        C186   1.444       .  A
C185        N190   1.464       .  S
C186        C187   1.458       .  A
C186        N225   1.497       .  S
C187        C188   1.442       .  A
C187        N204   1.473       .  S
C188        C189   1.470       .  A
C188        N211   1.480       .  S
C189        N197   1.497       .  S
N190        C194   1.347       .  A
N190        C191   1.359       .  A
C191        C515   1.491       .  S
C191        C192   1.385       .  A
C192        C193   1.364       .  A
C192        H195   1.082       .  S
C193        C194   1.388       .  A
C193        H196   1.082       .  S
C194        C411   1.474       .  S
N197        C201   1.353       .  A
N197        C198   1.367       .  A
C198        C407   1.498       .  S
C198        C199   1.378       .  A
C199        C200   1.357       .  A
C199        H202   1.083       .  S
C200        C201   1.399       .  A
C200        H203   1.083       .  S
C201        C543   1.507       .  S
N204        C208   1.345       .  A
N204        C205   1.363       .  A
C205        C480   1.502       .  S
C205        C206   1.382       .  A
C206        C207   1.373       .  A
C206        H209   1.084       .  S
C207        C208   1.387       .  A
C207        H210   1.066       .  S
C208        C404   1.486       .  S
N211        C215   1.361       .  A
N211        C212   1.349       .  A
C212        C399   1.494       .  S
C212        C213   1.397       .  A
C213        C214   1.361       .  A
C213        H216   1.083       .  S
C214        C215   1.387       .  A
C214        H217   1.081       .  S
C215        C492   1.509       .  S
N218        C222   1.360       .  A
N218        C219   1.390       .  A
C219        C552   1.490       .  S
C219        C220   1.393       .  A
C220        C221   1.360       .  A
C220        H223   1.088       .  S
C221        C222   1.375       .  A
C221        H224   1.073       .  S
C222        C395   1.477       .  S
N225        C229   1.375       .  A
N225        C226   1.387       .  A
C226        C519   1.482       .  S
C226        C227   1.379       .  A
C227        C228   1.348       .  A
C227        H230   1.081       .  S
C228        C229   1.375       .  A
C228        H231   1.080       .  S
C229        C391   1.464       .  S
C232        C233   1.426       .  A
C232        C237   1.449   1_565  A
C232        N245   1.480   1_565  S
C233        C234   1.465       .  A
C233        N252   1.494       .  S
C234        C235   1.466   1_455  A
C234        N273   1.468       .  S
C235        C236   1.461   1_565  A
C235        N266   1.495       .  S
C236        C237   1.463   1_655  A
C236        N259   1.507       .  S
C237        N238   1.455       .  S
N238        C242   1.357       .  A
N238        C239   1.341       .  A
C239        C387   1.468       .  S
C239        C240   1.389       .  A
C240        C241   1.361       .  A
C240        H243   1.064       .  S
C241        C242   1.379       .  A
C241        H244   1.084       .  S
C242        C500   1.454   1_455  S
N245        C249   1.364   1_545  A
N245        C246   1.385       .  A
C246        C383   1.496       .  S
C246        C247   1.376       .  A
C247        C248   1.356   1_545  A
C247        H250   1.080       .  S
C248        C249   1.383       .  A
C248        H251   1.076       .  S
C249        C536   1.474       .  S
N252        C256   1.376       .  A
N252        C253   1.383       .  A
C253        C548   1.480       .  S
C253        C254   1.382       .  A
C254        C255   1.342       .  A
C254        H257   1.082       .  S
C255        C256   1.374       .  A
C255        H258   1.082       .  S
C256        C380   1.454       .  S
N259        C263   1.358       .  A
N259        C260   1.377       .  A
C260        C376   1.520       .  S
C260        C261   1.380       .  A
C261        C262   1.361       .  A
C261        H264   1.084       .  S
C262        C263   1.388       .  A
C262        H265   1.083       .  S
C263        C524   1.503       .  S
N266        C270   1.373       .  A
N266        C267   1.362   1_565  A
C267        C371   1.499       .  S
C267        C268   1.390       .  A
C268        C269   1.364   1_545  A
C268        H271   1.082       .  S
C269        C270   1.383       .  A
C269        H272   1.083       .  S
C270        C464   1.506       .  S
N273        C277   1.356       .  A
N273        C274   1.349   1_455  A
C274        C475   1.485       .  S
C274        C275   1.377   1_655  A
C275        C276   1.357       .  A
C275        H278   1.082       .  S
C276        C277   1.394       .  A
C276        H279   1.070       .  S
C277        C368   1.502       .  S
O280        C288   1.285       .  A
O280       Co300   2.010       .  S
O281        C289   1.255       .  A
O281       Co301   1.917       .  S
O282        C290   1.251       .  A
O282       Co302   2.026       .  S
O283        C291   1.252       .  A
O283       Co303   2.012       .  S
O284        C290   1.228       .  A
O284       Co301   1.918       .  S
O285        C291   1.242       .  A
O285       Co300   1.953       .  S
O286        C289   1.291       .  A
O286       Co303   2.063       .  S
O287        C288   1.280       .  A
O287       Co302   2.071       .  S
C288        C384   1.517       .  S
C289        C396   1.481       .  S
C290        C388   1.458       .  S
C291        C412   1.457       .  S
O292        C305   1.318       .  A
O292       Co300   2.175       .  S
O293        C306   1.299       .  A
O293       Co301   2.092       .  S
O294        C307   1.256       .  A
O294       Co302   1.986       .  S
O295        C308   1.251       .  A
O295       Co303   2.020       .  S
O296        C308   1.247       .  A
O296       Co301   2.003       .  S
O297        C307   1.229       .  A
O297       Co300   1.953       .  S
O298        C305   1.253       .  A
O298       Co303   1.901       .  S
O299        C306   1.254       .  A
O299       Co302   1.900       .  S
Co300       O304   2.059       .  S
Co301       O304   2.064       .  S
Co302       O304   2.120       .  S
Co303       O304   2.115       .  S
C305        C448   1.519       .  S
C306        C419   1.479       .  S
C307        C452   1.440       .  S
C308        C432   1.502       .  S
O309        C317   1.259       .  A
O309       Co329   2.012       .  S
O310        C318   1.270       .  A
O310       Co330   2.069       .  S
O311        C319   1.245       .  A
O311       Co331   1.922       .  S
O312        C320   1.251       .  A
O312       Co332   1.945       .  S
O313        C319   1.280       .  A
O313       Co330   2.039       .  S
O314        C320   1.287       .  A
O314       Co329   2.082       .  S
O315        C318   1.268       .  A
O315       Co332   2.003       .  S
O316        C317   1.256       .  A
O316       Co331   1.990       .  S
C317        C372   1.477       .  S
C318        C424   1.531       .  S
C319        C416   1.470       .  S
C320        C375   1.503       .  S
O321        C334   1.243       .  A
O321       Co329   1.934       .  S
O322        C335   1.240       .  A
O322       Co330   1.937       .  S
O323        C336   1.270       .  A
O323       Co331   2.059       .  S
O324        C337   1.264       .  A
O324       Co332   2.035       .  S
O325        C337   1.250       .  A
O325       Co330   1.944       .  S
O326        C336   1.264       .  A
O326       Co329   1.974       .  S
O327        C334   1.279       .  A
O327       Co332   2.092       .  S
O328        C335   1.276       .  A
O328       Co331   2.051       .  S
Co329       O333   2.107       .  S
Co330       O333   2.130       .  S
Co331       O333   2.135       .  S
Co332       O333   2.131       .  S
C334        C392   1.512       .  S
C335        C456   1.485       .  S
C336        C460   1.501       .  S
C337        C403   1.482       .  S
O338        C346   1.259       .  A
O338       Co358   1.998       .  S
O339        C347   1.251       .  A
O339       Co359   1.993       .  S
O340        C348   1.287       .  A
O340       Co360   2.088       .  S
O341        C349   1.295       .  A
O341       Co361   2.111       .  S
O342        C348   1.228       .  A
O342       Co359   1.870       .  S
O343        C349   1.262       .  A
O343       Co358   1.962       .  S
O344        C347   1.256       .  A
O344       Co361   2.003       .  S
O345        C346   1.255       .  A
O345       Co360   1.997       .  S
C346        C400   1.470       .  S
C347        C428   1.476       .  S
C348        C408   1.457       .  S
C349        C436   1.534       .  S
O350        C363   1.263       .  A
O350       Co358   2.021       .  S
O351        C364   1.305       .  A
O351       Co359   2.120       .  S
O352        C365   1.250       .  A
O352       Co360   1.941       .  S
O353        C366   1.267       .  A
O353       Co361   1.998       .  S
O354        C366   1.269       .  A
O354       Co359   2.014       .  S
O355        C365   1.287       .  A
O355       Co358   2.083       .  S
O356        C363   1.243       .  A
O356       Co361   1.923       .  S
O357        C364   1.243       .  A
O357       Co360   1.910       .  S
Co358       O362   2.135       .  S
Co359       O362   2.124       .  S
Co360       O362   2.082       .  S
Co361       O362   2.095       .  S
C363        C440   1.461       .  S
C364        C379   1.576       .  S
C365        C443   1.483       .  S
C366        C367   1.481       .  S
C367        C368   1.351       .  D
C367        H369   1.081       .  S
C368        H370   1.083       .  S
C371        C372   1.351       .  D
C371        H373   1.084       .  S
C372        H374   1.086       .  S
C375        C376   1.372       .  D
C375        H377   1.078       .  S
C376        H378   1.087       .  S
C379        C380   1.351       .  D
C379        H381   1.055       .  S
C380        H382   1.086       .  S
C383        C384   1.383       .  D
C383        H385   1.086       .  S
C384        H386   1.086       .  S
C387        C388   1.334       .  D
C387        H389   1.085       .  S
C388        H390   1.087       .  S
C391        C392   1.356       .  D
C391        H393   1.086       .  S
C392        H394   1.088       .  S
C395        C396   1.343       .  D
C395        H397   1.085       .  S
C396        H398   1.087       .  S
C399        C400   1.342       .  D
C399        H401   1.084       .  S
C400        H402   1.086       .  S
C403        C404   1.351       .  D
C403        H405   1.088       .  S
C404        H406   1.088       .  S
C407        C408   1.310       .  D
C407        H409   1.083       .  S
C408        H410   1.087       .  S
C411        C412   1.339       .  D
C411        H413   1.081       .  S
C412        H414   1.088       .  S
C415        C416   1.329       .  D
C415        H417   1.082       .  S
C416        H418   1.084       .  S
C419        C420   1.330       .  D
C419        H421   1.085       .  S
C420        H422   1.084       .  S
C423        C424   1.390       .  D
C423        H425   1.087       .  S
C424        H426   1.087       .  S
C427        C428   1.344       .  D
C427        H429   1.081       .  S
C428        H430   1.089       .  S
C431        C432   1.362       .  D
C431        H433   1.086       .  S
C432        H434   1.086       .  S
C435        C436   1.380       .  D
C435        H437   1.085       .  S
C436        H438   1.088       .  S
C439        C440   1.359       .  D
C439        H441   1.083       .  S
C440        H442   1.081       .  S
C443        C444   1.365       .  D
C443        H445   1.081       .  S
C444        H446   1.085       .  S
C447        C448   1.368       .  D
C447        H449   1.086       .  S
C448        H450   1.087       .  S
C451        C452   1.353       .  D
C451        H453   1.075       .  S
C452        H454   1.082       .  S
C455        C456   1.326       .  D
C455        H457   1.086       .  S
C456        H458   1.086       .  S
C459        C460   1.366       .  D
C459        H461   1.086       .  S
C460        H462   1.087       .  S
C463        C464   1.357       .  D
C463        H465   1.081       .  S
C464        H466   1.087       .  S
C467        C468   1.348       .  D
C467        H469   1.086       .  S
C468        H470   1.085       .  S
C471        C472   1.331       .  D
C471        H473   1.087       .  S
C472        H474   1.088       .  S
C475        C476   1.334       .  D
C475        H477   1.081       .  S
C476        H478   1.082       .  S
C479        C480   1.336       .  D
C479        H481   1.085       .  S
C480        H482   1.087       .  S
C483        C484   1.367       .  D
C483        H485   1.079       .  S
C484        H486   1.086       .  S
C487        C488   1.363       .  D
C487        H489   1.089       .  S
C488        H490   1.087       .  S
C491        C492   1.334       .  D
C491        H493   1.084       .  S
C492        H494   1.084       .  S
C495        C496   1.342       .  D
C495        H497   1.080       .  S
C496        H498   1.084       .  S
C499        C500   1.316       .  D
C499        H501   1.087       .  S
C500        H502   1.088       .  S
C503        C504   1.345       .  D
C503        H505   1.087       .  S
C504        H506   1.085       .  S
C507        C508   1.357       .  D
C507        H509   1.080       .  S
C508        H510   1.084       .  S
C511        C512   1.377       .  D
C511        H513   1.087       .  S
C512        H514   1.086       .  S
C515        C516   1.341       .  D
C515        H517   1.087       .  S
C516        H518   1.085       .  S
C519        C520   1.381       .  D
C519        H521   1.085       .  S
C520        H522   1.087       .  S
C523        C524   1.353       .  D
C523        H525   1.087       .  S
C524        H526   1.083       .  S
C527        C528   1.352       .  D
C527        H529   1.085       .  S
C528        H530   1.087       .  S
C531        C532   1.380       .  D
C531        H533   1.086       .  S
C532        H534   1.083       .  S
C535        C536   1.339       .  D
C535        H537   1.088       .  S
C536        H538   1.084       .  S
C539        C540   1.346       .  D
C539        H541   1.088       .  S
C540        H542   1.089       .  S
C543        C544   1.352       .  D
C543        H545   1.084       .  S
C544        H546   1.086       .  S
C547        C548   1.371       .  D
C547        H549   1.086       .  S
C548        H550   1.086       .  S
C551        C552   1.330       .  D
C551        H553   1.086       .  S
C552        H554   1.076       .  S
C555        C556   1.346       .  D
C555        H557   1.085       .  S
C556        H558   1.088       .  S
