geometry optimzed in LAMMPS
_audit_creation_date              2020-11-30 
_audit_creation_method            'lammps2cif' 
_symmetry_space_group_name_H-M    'P1' 
_symmetry_Int_Tables_number       1 
_symmetry_cell_setting            triclinic 
loop_ 
_symmetry_equiv_pos_as_xyz 
  x,y,z 
_cell_length_a                    42.00226817 
_cell_length_b                    42.78789208065158 
_cell_length_c                    42.06463242001805 
_cell_angle_alpha                 90.22278379553292 
_cell_angle_beta                  90.4779612376452 
_cell_angle_gamma                 90.2345233648257 
loop_ 
_atom_site_label 
_atom_site_type_symbol 
_atom_site_fract_x 
_atom_site_fract_y 
_atom_site_fract_z 
_atom_site_charge 
O1          O  0.52387962  0.47639888  0.41955310    -0.77900
C2          C  0.43834654  0.53387181  0.43237547     0.83200
O3          O  0.55675891  0.57107128  0.49088039    -0.79000
O4          O  0.45702186  0.54300530  0.54459675    -0.80500
O5          O  0.47396239  0.43540867  0.51047930    -0.80300
O6          O  0.52859171  0.43799841  0.45426540    -0.78900
Zn7        Zn  0.50896003  0.51496293  0.44567858     1.55700
O8          O  0.43322102  0.46845277  0.51367417    -0.80300
Cd9        Cd  0.51410612  0.46197239  0.49657530     1.59700
Cd10       Cd  0.53137351  0.53810020  0.51917012     1.59600
O11         O  0.55251516  0.46434450  0.53072068    -0.80300
O12         O  0.50237291  0.50744507  0.49102338    -1.90800
Cd13       Cd  0.45547706  0.51297484  0.50222186     1.59900
O14         O  0.56663722  0.51302516  0.54466137    -0.80200
O15         O  0.42974152  0.53106458  0.46153799    -0.78900
C16         C  0.55923265  0.57086889  0.46059731     0.83600
C17         C  0.53057552  0.44789850  0.42568434     0.83300
O18         O  0.46693124  0.52776574  0.42417928    -0.77800
C19         C  0.44445577  0.44060620  0.51603641     0.84100
O20         O  0.54320704  0.55070668  0.44410549    -0.77900
C21         C  0.57084180  0.48355866  0.54632852     0.84200
C22         C  0.47643224  0.55875610  0.56296625     0.84600
O23         O  0.50582924  0.56150248  0.55585356    -0.80400
O24         O  0.46607458  0.32410817  0.22083395    -0.77900
C25         C  0.53223041  0.32196311  0.30126412     0.83200
O26         O  0.56418194  0.25263164  0.18500444    -0.79000
O27         O  0.54977304  0.21427641  0.29158591    -0.80500
O28         O  0.43500486  0.22802433  0.27826403    -0.80300
O29         O  0.43003815  0.28619200  0.22451508    -0.78900
Zn30       Zn  0.50978023  0.30129674  0.23268389     1.55700
O31         O  0.47238877  0.23582560  0.31548887    -0.80300
Cd32       Cd  0.45760524  0.24525630  0.23602647     1.59700
Cd33       Cd  0.53456431  0.22765478  0.21622207     1.59600
O34         O  0.45981146  0.21213656  0.19635168    -0.80300
O35         O  0.50409842  0.25670233  0.24375301    -1.90800
Cd36       Cd  0.51421423  0.25118684  0.29057721     1.59900
O37         O  0.50969582  0.19934803  0.18348931    -0.80200
O38         O  0.52883137  0.29448964  0.31303273    -0.78900
C39         C  0.56067846  0.28117638  0.17733244     0.83600
C40         C  0.43684146  0.31508467  0.21950485     0.83300
O41         O  0.52670173  0.32665013  0.27161633    -0.77800
C42         C  0.44403783  0.22720126  0.30754014     0.84100
O43         O  0.54238429  0.29929592  0.19394847    -0.77900
C44         C  0.47991142  0.19743473  0.17827551     0.84200
C45         C  0.56312942  0.19361168  0.27336241     0.84600
O46         O  0.56101222  0.19556190  0.24322317    -0.80400
C47         C  0.77116167  0.73428901  0.73631990     0.80900
N48         N  0.77741501  0.75881369  0.71686005    -0.77500
C49         C  0.75832241  0.78445322  0.71740852     0.83300
N50         N  0.73361773  0.78555511  0.73792016    -0.77400
C51         C  0.72739107  0.76146326  0.75758454     0.83400
N52         N  0.74638091  0.73607572  0.75679798    -0.79100
C53         C  0.76079616  0.96933224  0.96742012     0.80900
N54         N  0.77559437  0.97155251  0.99613463    -0.77500
C55         C  0.80171008  0.99016950  0.00046302     0.83300
N56         N  0.81326129  0.00636339  0.97532379    -0.77400
C57         C  0.79873880  0.00442310  0.94636066     0.83400
N58         N  0.77243991  0.98615185  0.94272278    -0.79100
C59         C  0.98668401  0.78291167  0.99834673     0.80900
N60         N  0.01743560  0.78360195  0.98810557    -0.77500
C61         C  0.02504219  0.76820941  0.96069249     0.83300
N62         N  0.00185891  0.75441666  0.94307211    -0.77400
C63         C  0.97133562  0.75538257  0.95237314     0.83400
N64         N  0.96408119  0.76928134  0.98007394    -0.79100
C65         C  0.97641903  0.00017170  0.72024295     0.80900
N66         N  0.98947155  0.97303043  0.73006664    -0.77500
C67         C  0.00745435  0.97209990  0.75693782     0.83300
N68         N  0.01265834  0.99866241  0.77415470    -0.77400
C69         C  0.00019859  0.02614546  0.76405405     0.83400
N70         N  0.98171926  0.02648083  0.73739521    -0.79100
N71         N  0.10979346  0.83138362  0.82242078    -0.36000
N72         N  0.14026431  0.89362728  0.82245382    -0.56500
N73         N  0.18804661  0.87649305  0.87187510    -0.36000
N74         N  0.15374695  0.81829784  0.87771478    -0.56500
C75         C  0.08689990  0.84731882  0.80709108     0.27600
C76         C  0.09509812  0.80733953  0.83701817     0.27600
C77         C  0.19904756  0.90579450  0.86517941     0.27600
C78         C  0.20405425  0.86386296  0.89740328     0.27600
C79         C  0.11613907  0.89827589  0.80126804     0.36200
C80         C  0.15707375  0.92081191  0.82393266     0.36200
C81         C  0.14145868  0.79160031  0.86621889     0.36200
C82         C  0.18162554  0.81092806  0.89110893     0.36200
C83         C  0.05797901  0.83149981  0.80949275    -0.21300
C84         C  0.06314527  0.80643116  0.82906706    -0.21300
C85         C  0.22347236  0.91203245  0.88687609    -0.21300
C86         C  0.22610212  0.88617188  0.90743271    -0.21300
C87         C  0.11743213  0.92860515  0.78982595    -0.22300
C88         C  0.14274913  0.94278898  0.80422751    -0.22300
C89         C  0.16081665  0.76667636  0.87319608    -0.22300
C90         C  0.18684861  0.77898824  0.88882203    -0.22300
C91         C  0.09039447  0.87745326  0.79438579    -0.17700
C92         C  0.10925239  0.78905306  0.86056980    -0.17700
C93         C  0.19945325  0.83204893  0.90947722    -0.17700
C94         C  0.18662805  0.92641024  0.84030684    -0.17700
H95         H  0.03501334  0.83861079  0.80023932     0.15200
H96         H  0.04530351  0.79035596  0.83780799     0.15200
H97         H  0.23747804  0.93327943  0.88829621     0.15200
H98         H  0.24302063  0.88377514  0.92679742     0.15200
H99         H  0.10137790  0.93979480  0.77320047     0.13500
H100        H  0.14993556  0.96679340  0.80034985     0.13500
H101        H  0.15547880  0.74228355  0.86898838     0.13500
H102        H  0.20675649  0.76603919  0.89847392     0.13500
H103        H  0.13360466  0.83778751  0.82485157     0.26800
H104        H  0.17053755  0.86541759  0.85870571     0.26800
N105        N  0.90680998  0.90685244  0.10957936    -0.36000
N106        N  0.91564052  0.85532303  0.15400024    -0.56500
N107        N  0.88672552  0.89122034  0.20588475    -0.36000
N108        N  0.87332403  0.93947491  0.15892246    -0.56500
C109        C  0.91493998  0.88409995  0.08911482     0.27600
C110        C  0.89053252  0.92832832  0.09265573     0.27600
C111        C  0.89273199  0.86382226  0.22137185     0.27600
C112        C  0.86235075  0.90701095  0.22034938     0.27600
C113        C  0.92920669  0.84266119  0.12776627     0.36200
C114        C  0.92093645  0.83476610  0.17787893     0.36200
C115        C  0.87707575  0.96221242  0.13746543     0.36200
C116        C  0.86479139  0.95359260  0.18589452     0.36200
C117        C  0.90477352  0.89155186  0.05865302    -0.21300
C118        C  0.88896461  0.91942809  0.06094244    -0.21300
C119        C  0.87253919  0.86260960  0.24731847    -0.21300
C120        C  0.85300242  0.88919473  0.24622392    -0.21300
C121        C  0.94182518  0.81366026  0.13486144    -0.22300
C122        C  0.93611868  0.80844609  0.16605839    -0.22300
C123        C  0.87117334  0.99123873  0.15056190    -0.22300
C124        C  0.86377607  0.98584226  0.18166576    -0.22300
C125        C  0.93068457  0.85645150  0.09722793    -0.17700
C126        C  0.87716039  0.95572411  0.10523684    -0.17700
C127        C  0.84967042  0.93717983  0.21025628    -0.17700
C128        C  0.91413959  0.83933984  0.21061293    -0.17700
H129        H  0.90759664  0.87784041  0.03718973     0.15200
H130        H  0.87758306  0.93163589  0.04147410     0.15200
H131        H  0.87079475  0.84373938  0.26427209     0.15200
H132        H  0.83431302  0.89476407  0.26282079     0.15200
H133        H  0.95503579  0.79800308  0.11971954     0.13500
H134        H  0.94365279  0.78771853  0.17860690     0.13500
H135        H  0.87011576  0.01346789  0.13839204     0.13500
H136        H  0.85574378  0.00328641  0.19846560     0.13500
H137        H  0.91270039  0.90784468  0.13359374     0.26800
H138        H  0.89932940  0.89877914  0.18627314     0.26800
N139        N  0.82269819  0.94077087  0.63980236    -0.36000
N140        N  0.80154404  0.89238501  0.59285287    -0.56500
N141        N  0.84441900  0.90975046  0.54223411    -0.36000
N142        N  0.86963404  0.95405411  0.59032370    -0.56500
C143        C  0.81177123  0.91719991  0.65778644     0.27600
C144        C  0.84761205  0.95368917  0.65543124     0.27600
C145        C  0.83407430  0.88100789  0.53197825     0.27600
C146        C  0.87413518  0.91641846  0.53068827     0.27600
C147        C  0.77913658  0.89481572  0.61554877     0.36200
C148        C  0.78705595  0.87957955  0.56719854     0.36200
C149        C  0.86775158  0.97955065  0.60919540     0.36200
C150        C  0.87890655  0.96456113  0.56179562     0.36200
C151        C  0.82913395  0.91573891  0.68595580    -0.21300
C152        C  0.85187953  0.93912128  0.68452829    -0.21300
C153        C  0.85759252  0.86931241  0.51213083    -0.21300
C154        C  0.88268176  0.89140844  0.51140242    -0.21300
C155        C  0.75019019  0.88361641  0.60445268    -0.22300
C156        C  0.75495928  0.87460937  0.57352735    -0.22300
C157        C  0.87595028  0.00626005  0.59290152    -0.22300
C158        C  0.88194791  0.99668526  0.56235169    -0.22300
C159        C  0.78755649  0.89662083  0.64777853    -0.17700
C160        C  0.86711402  0.97685158  0.64217391    -0.17700
C161        C  0.89194507  0.94493543  0.53850310    -0.17700
C162        C  0.80402749  0.86641189  0.54147394    -0.17700
H163        H  0.82655664  0.89892435  0.70491109     0.15200
H164        H  0.87025427  0.94383937  0.70210729     0.15200
H165        H  0.85713122  0.84698148  0.49997375     0.15200
H166        H  0.90472200  0.88903588  0.49850213     0.15200
H167        H  0.72865605  0.88024151  0.61800850     0.13500
H168        H  0.73734716  0.86356164  0.55823214     0.13500
H169        H  0.87846651  0.02966144  0.60246944     0.13500
H170        H  0.88925011  0.01083298  0.54261014     0.13500
H171        H  0.81409360  0.94722967  0.61740535     0.26800
H172        H  0.83126908  0.92475755  0.55651673     0.26800
N173        N  0.87368910  0.64924952  0.84565529    -0.36000
N174        N  0.85637165  0.59559637  0.81355443    -0.56500
N175        N  0.87498236  0.55418585  0.86659758    -0.36000
N176        N  0.89027451  0.61001073  0.90173112    -0.56500
C177        C  0.85607940  0.66125302  0.82182715     0.27600
C178        C  0.87133510  0.66902743  0.87018415     0.27600
C179        C  0.85148385  0.53713558  0.85193301     0.27600
C180        C  0.88074700  0.54269124  0.89626108     0.27600
C181        C  0.85748617  0.61501674  0.78856350     0.36200
C182        C  0.85340660  0.56668048  0.80183806     0.36200
C183        C  0.90247674  0.63846940  0.90868943     0.36200
C184        C  0.90834640  0.58935723  0.91798983     0.36200
C185        C  0.84270135  0.68938974  0.83124960    -0.21300
C186        C  0.85267258  0.69443288  0.86205028    -0.21300
C187        C  0.84236488  0.51367295  0.87276779    -0.21300
C188        C  0.86136258  0.51667475  0.90030339    -0.21300
C189        C  0.85529730  0.59852079  0.76049899    -0.22300
C190        C  0.85311651  0.56759904  0.76876230    -0.22300
C191        C  0.92804103  0.63604796  0.92953256    -0.22300
C192        C  0.93179647  0.60494968  0.93545932    -0.22300
C193        C  0.85244254  0.64704474  0.79193921    -0.17700
C194        C  0.89004807  0.66678157  0.89736614    -0.17700
C195        C  0.90233985  0.55689766  0.91910553    -0.17700
C196        C  0.83962916  0.54299664  0.82005774    -0.17700
H197        H  0.82766596  0.70475168  0.81738201     0.15200
H198        H  0.84751851  0.71468463  0.87660054     0.15200
H199        H  0.82429745  0.49601981  0.86850349     0.15200
H200        H  0.85996248  0.50227879  0.92134168     0.15200
H201        H  0.85219648  0.60820918  0.73714711     0.13500
H202        H  0.84800742  0.54841577  0.75262513     0.13500
H203        H  0.94244279  0.65473385  0.93954722     0.13500
H204        H  0.94958428  0.59517312  0.95124776     0.13500
H205        H  0.88845873  0.62974710  0.84480756     0.26800
H206        H  0.88721561  0.57293630  0.85671176     0.26800
N207        N  0.64732439  0.83568888  0.90435743    -0.36000
N208        N  0.59419914  0.80992374  0.86721760    -0.56500
N209        N  0.54862738  0.85560954  0.89177598    -0.36000
N210        N  0.60259154  0.88418140  0.92621756    -0.56500
C211        C  0.66297215  0.81906280  0.88215393     0.27600
C212        C  0.66724107  0.85864679  0.91423894     0.27600
C213        C  0.53186303  0.84411603  0.86612944     0.27600
C214        C  0.53548827  0.88313788  0.90199019     0.27600
C215        C  0.61697055  0.78795118  0.86307361     0.36200
C216        C  0.56719873  0.79814581  0.85407648     0.36200
C217        C  0.62809857  0.88703936  0.94594465     0.36200
C218        C  0.57754616  0.89560317  0.94243460     0.36200
C219        C  0.69361435  0.83080400  0.87881996    -0.21300
C220        C  0.69635961  0.85580822  0.89929092    -0.21300
C221        C  0.50690483  0.86458605  0.86034676    -0.21300
C222        C  0.50915942  0.88894161  0.88270785    -0.21300
C223        C  0.60449524  0.76201879  0.84780783    -0.22300
C224        C  0.57346420  0.76867435  0.84140791    -0.22300
C225        C  0.61966418  0.90024734  0.97454397    -0.22300
C226        C  0.58751506  0.90463707  0.97286347    -0.22300
C227        C  0.64984080  0.79426824  0.86423897    -0.17700
C228        C  0.65950800  0.88171984  0.93667941    -0.17700
C229        C  0.54720517  0.90206861  0.92858426    -0.17700
C230        C  0.53852984  0.81519053  0.84899872    -0.17700
H231        H  0.71193551  0.82258457  0.86293927     0.15200
H232        H  0.71719489  0.87050697  0.90238483     0.15200
H233        H  0.48894432  0.86231272  0.84187863     0.15200
H234        H  0.49330023  0.90873102  0.88430128     0.15200
H235        H  0.61731329  0.74178974  0.83925251     0.13500
H236        H  0.55842983  0.75412270  0.82661891     0.13500
H237        H  0.63501799  0.90569094  0.99461899     0.13500
H238        H  0.57321904  0.91358561  0.99212201     0.13500
H239        H  0.62429549  0.83164011  0.91241579     0.26800
H240        H  0.56778829  0.84462880  0.90270776     0.26800
N241        N  0.89116766  0.11857190  0.84841870    -0.36000
N242        N  0.83754373  0.15602336  0.87258596    -0.56500
N243        N  0.87744395  0.21196482  0.86793617    -0.36000
N244        N  0.92741718  0.17216310  0.84124192    -0.56500
C245        C  0.86619731  0.09943097  0.84350564     0.27600
C246        C  0.91535604  0.10790411  0.83056233     0.27600
C247        C  0.84869156  0.22372215  0.87641994     0.27600
C248        C  0.89246262  0.23195185  0.84754936     0.27600
C249        C  0.83008560  0.12620200  0.88037383     0.36200
C250        C  0.82538180  0.17424641  0.89590026     0.36200
C251        C  0.95128693  0.15158643  0.84071328     0.36200
C252        C  0.94044929  0.20032300  0.84533428     0.36200
C253        C  0.87449926  0.07585559  0.82245007    -0.21300
C254        C  0.90573432  0.08129477  0.81410868    -0.21300
C255        C  0.84551156  0.25273612  0.86206114    -0.21300
C256        C  0.87262421  0.25751118  0.84318565    -0.21300
C257        C  0.81304992  0.12557785  0.90846851    -0.22300
C258        C  0.81024413  0.15591333  0.91834976    -0.22300
C259        C  0.98032464  0.16648781  0.84443361    -0.22300
C260        C  0.97341472  0.19776005  0.84756157    -0.22300
C261        C  0.83921341  0.09939480  0.86289564    -0.17700
C262        C  0.94622068  0.12093722  0.83091200    -0.17700
C263        C  0.92396032  0.22655577  0.83473379    -0.17700
C264        C  0.82610923  0.20731779  0.89612584    -0.17700
H265        H  0.86002714  0.05604036  0.81521510     0.15200
H266        H  0.91994677  0.06685393  0.79856773     0.15200
H267        H  0.82531314  0.26823253  0.86390568     0.15200
H268        H  0.87739847  0.27776110  0.82863846     0.15200
H269        H  0.80416195  0.10537767  0.92104803     0.13500
H270        H  0.79867952  0.16350723  0.93989065     0.13500
H271        H  0.00374782  0.15622735  0.84262117     0.13500
H272        H  0.99055944  0.21672568  0.84786475     0.13500
H273        H  0.89242072  0.13615824  0.86555994     0.60400
H274        H  0.88645004  0.19098127  0.87655620     0.26800
O275        O  0.27098572  0.56815717  0.21114839    -0.77900
C276        C  0.18975133  0.57142753  0.27352765     0.83200
O277        O  0.30918343  0.50261966  0.30597603    -0.79000
O278        O  0.19966944  0.46290719  0.29546601    -0.80500
O279        O  0.20845167  0.47873321  0.17936097    -0.80300
O280        O  0.27085362  0.53155886  0.17364656    -0.78900
Zn281      Zn  0.25770153  0.54755586  0.25316375     1.55700
O282        O  0.17379651  0.48702947  0.21850615    -0.80300
Cd283      Cd  0.25378380  0.49160693  0.20143316     1.59700
Cd284      Cd  0.27571692  0.47527508  0.27923909     1.59600
O285        O  0.28642381  0.45139487  0.20508186    -0.80300
O286        O  0.24706845  0.50338070  0.24833980    -1.90800
Cd287      Cd  0.20006601  0.50024282  0.26018088     1.59900
O288        O  0.30397447  0.44240171  0.25458687    -0.80200
O289        O  0.17735786  0.54397030  0.27444298    -0.78900
C290        C  0.31406227  0.53204723  0.30364333     0.83600
C291        C  0.27500637  0.56029624  0.18214032     0.83300
O292        O  0.21895410  0.57414518  0.26564985    -0.77800
C293        C  0.17962297  0.47905607  0.18961782     0.84100
O294        O  0.29567608  0.54898301  0.28598872    -0.77900
C295        C  0.30324376  0.43506566  0.22521003     0.84200
C296        C  0.21743291  0.44271847  0.31020793     0.84600
O297        O  0.24776055  0.44474163  0.30829254    -0.80400
O298        O  0.27949587  0.18464906  0.53517156    -0.77900
C299        C  0.20024353  0.18619962  0.47013498     0.83200
O300        O  0.32033134  0.25778840  0.44147720    -0.79000
O301        O  0.21055794  0.29022837  0.44560477    -0.80500
O302        O  0.21838496  0.27542317  0.56532822    -0.80300
O303        O  0.27533162  0.22159246  0.57190070    -0.78900
Zn304      Zn  0.26926481  0.20824695  0.49126002     1.55700
O305        O  0.18353059  0.27315461  0.52514384    -0.80300
Cd306      Cd  0.26225865  0.26176058  0.54387629     1.59700
Cd307      Cd  0.28543817  0.28278603  0.46779622     1.59600
O308        O  0.29748677  0.29902453  0.54378503    -0.80300
O309        O  0.25696297  0.25239195  0.49665627    -1.90800
Cd310      Cd  0.20995689  0.25723557  0.48504407     1.59900
O311        O  0.31173562  0.31578583  0.49568207    -0.80200
O312        O  0.18719095  0.21308901  0.47303115    -0.78900
C313        C  0.32610060  0.22852012  0.44200853     0.83600
C314        C  0.28031434  0.19285177  0.56465524     0.83300
O315        O  0.23035552  0.18326859  0.47471897    -0.77800
C316        C  0.18988944  0.27850927  0.55460478     0.84100
O317        O  0.30852112  0.20991804  0.45888106    -0.77900
C318        C  0.31383906  0.31783048  0.52594307     0.84200
C319        C  0.22892249  0.30700608  0.42757844     0.84600
O320        O  0.25886271  0.30818972  0.43299908    -0.80400
O321        O  0.50579934  0.77299748  0.82923157    -0.77900
C322        C  0.41815827  0.71856609  0.81506374     0.83200
O323        O  0.54555030  0.68776674  0.75666627    -0.79000
O324        O  0.43701877  0.69953895  0.70872103    -0.80500
O325        O  0.45312406  0.81827212  0.74308797    -0.80300
O326        O  0.51662981  0.81081799  0.79503822    -0.78900
Zn327      Zn  0.48949336  0.73466177  0.80242437     1.55700
O328        O  0.41527545  0.78235405  0.73451280    -0.80300
Cd329      Cd  0.49538259  0.79064468  0.75257617     1.59700
Cd330      Cd  0.51390515  0.71567622  0.72819859     1.59600
O331        O  0.52758810  0.79045623  0.71256147    -0.80300
O332        O  0.48407581  0.74435014  0.75698447    -1.90800
Cd333      Cd  0.43720790  0.73747158  0.74516984     1.59900
O334        O  0.54084125  0.74286961  0.69480817    -0.80200
O335        O  0.41037921  0.72263734  0.78579960    -0.78900
C336        C  0.54402976  0.68315292  0.78668569     0.83600
C337        C  0.51712764  0.80027865  0.82356066     0.83300
O338        O  0.44712064  0.72205901  0.82410555    -0.77800
C339        C  0.42406427  0.81133016  0.73609178     0.84100
O340        O  0.52338865  0.69833885  0.80320961    -0.77900
C341        C  0.54215781  0.77266914  0.69228086     0.84200
C342        C  0.45660765  0.67980504  0.69560792     0.84600
O343        O  0.48663259  0.68265952  0.70054167    -0.80400
O344        O  0.16954259  0.72361482  0.98435950    -0.77900
C345        C  0.17433246  0.78769656  0.06449342     0.83200
O346        O  0.24257129  0.81508946  0.94440823    -0.79000
O347        O  0.28098333  0.80908066  0.05237162    -0.80500
O348        O  0.26144578  0.68974791  0.04606053    -0.80300
O349        O  0.20675186  0.68708040  0.98846144    -0.78900
Zn350      Zn  0.19330300  0.76602190  0.99553776     1.55700
O351        O  0.26138864  0.73087877  0.07860447    -0.80300
Cd352      Cd  0.24816908  0.71277882  0.00250883     1.59700
Cd353      Cd  0.26828255  0.78673690  0.97701172     1.59600
O354        O  0.28636363  0.71221058  0.96850366    -0.80300
O355        O  0.23864670  0.75938572  0.00674142    -1.90800
Cd356      Cd  0.24631978  0.77119508  0.05298342     1.59900
O357        O  0.30049492  0.75932555  0.95042757    -0.80200
O358        O  0.20275439  0.78597876  0.07586246    -0.78900
C359        C  0.21257938  0.81654462  0.93963018     0.83600
C360        C  0.17779268  0.69476218  0.98281148     0.83300
O361        O  0.16882791  0.78050026  0.03533794    -0.77800
C362        C  0.26526127  0.70136328  0.07391200     0.84100
O363        O  0.19328076  0.79990543  0.95686440    -0.77900
C364        C  0.30443499  0.72978911  0.95120203     0.84200
C365        C  0.29693931  0.82560838  0.03213516     0.84600
O366        O  0.29624412  0.81914014  0.00255825    -0.80400
O367        O  0.99739040  0.48043869  0.93013398    -0.77900
C368        C  0.92257643  0.53974613  0.94321469     0.83200
O369        O  0.04725179  0.56896027  0.00327140    -0.79000
O370        O  0.94105294  0.54940085  0.05388940    -0.80500
O371        O  0.95485565  0.43840740  0.01963414    -0.80300
O372        O  0.01305257  0.44258118  0.96210241    -0.78900
Zn373      Zn  0.99188525  0.51967087  0.95783000     1.55700
O374        O  0.91667511  0.47437139  0.02438266    -0.80300
Cd375      Cd  0.99752088  0.46367958  0.00694798     1.59700
Cd376      Cd  0.01714196  0.53888876  0.03085072     1.59600
O377        O  0.03266968  0.46327524  0.04582880    -0.80300
O378        O  0.98647916  0.51012039  0.00260625    -1.90800
Cd379      Cd  0.93957686  0.51795870  0.01273663     1.59900
O380        O  0.04716974  0.51163299  0.06101539    -0.80200
O381        O  0.91305169  0.53479274  0.97172589    -0.78900
C382        C  0.04936820  0.56938972  0.97294206     0.83600
C383        C  0.00860353  0.45308532  0.93375892     0.83300
O384        O  0.95184287  0.53619425  0.93631308    -0.77800
C385        C  0.92573520  0.44570060  0.02539378     0.84100
O386        O  0.03056853  0.55170312  0.95615936    -0.77900
C387        C  0.04855211  0.48201691  0.06466528     0.84200
C388        C  0.96128035  0.56457136  0.07181362     0.84600
O389        O  0.99090258  0.56535487  0.06489566    -0.80400
O390        O  0.31021532  0.03046474  0.79346313    -0.77900
C391        C  0.29928831  0.94227387  0.74370788     0.83200
O392        O  0.24188379  0.06512962  0.69437328    -0.79000
O393        O  0.19637211  0.96482875  0.71575461    -0.80500
O394        O  0.20902125  0.98011331  0.83261770    -0.80300
O395        O  0.27152607  0.03405883  0.82952172    -0.78900
Zn396      Zn  0.28673353  0.01493556  0.75180749     1.55700
O397        O  0.21216027  0.94472402  0.79428943    -0.80300
Cd398      Cd  0.22768464  0.02096375  0.80589972     1.59700
Cd399      Cd  0.21234499  0.03907049  0.72673895     1.59600
O400        O  0.19545282  0.06121738  0.80137671    -0.80300
O401        O  0.23970524  0.01164771  0.75979101    -1.90800
Cd402      Cd  0.22987958  0.96647547  0.75429386     1.59900
O403        O  0.18547246  0.07411647  0.75057355    -0.80200
O404        O  0.27012426  0.93798935  0.75050902    -0.78900
C405        C  0.27232890  0.06620699  0.69420620     0.83600
C406        C  0.30115202  0.03625778  0.82195461     0.83300
O407        O  0.30971624  0.97053033  0.74103276    -0.77800
C408        C  0.20577967  0.95157663  0.82301378     0.84100
O409        O  0.28822902  0.04899588  0.71421415    -0.77900
C410        C  0.18269627  0.07974408  0.78029651     0.84200
C411        C  0.17829335  0.98146855  0.69746443     0.84600
O412        O  0.17999988  0.01130077  0.69871068    -0.80400
O413        O  0.75158495  0.69924691  0.53708217    -0.77900
C414        C  0.66953879  0.70897167  0.47468243     0.83200
O415        O  0.79341416  0.77286803  0.44480303    -0.79000
O416        O  0.68198687  0.81285360  0.45540561    -0.80500
O417        O  0.69792537  0.79124394  0.57423612    -0.80300
O418        O  0.75348449  0.73696712  0.57351843    -0.78900
Zn419      Zn  0.74044471  0.72393060  0.49386158     1.55700
O420        O  0.66036525  0.79136898  0.53669890    -0.80300
Cd421      Cd  0.74018545  0.77875790  0.54851761     1.59700
Cd422      Cd  0.75874300  0.79862530  0.47081024     1.59600
O423        O  0.77489946  0.81735755  0.54792641    -0.80300
O424        O  0.73157734  0.76948267  0.50151662    -1.90800
Cd425      Cd  0.68481346  0.77871772  0.49409013     1.59900
O426        O  0.78495632  0.83271894  0.49798411    -0.80200
O427        O  0.66103496  0.73682147  0.48175118    -0.78900
C428        C  0.79899743  0.74353037  0.44539263     0.83600
C429        C  0.75606971  0.70784218  0.56616258     0.83300
O430        O  0.69901142  0.70104599  0.47634331    -0.77800
C431        C  0.66861464  0.79426309  0.56602543     0.84100
O432        O  0.78078811  0.72485174  0.46168611    -0.77900
C433        C  0.78851076  0.83641497  0.52807466     0.84200
C434        C  0.69974729  0.82676256  0.43469544     0.84600
O435        O  0.73004196  0.82346328  0.43643813    -0.80400
O436        O  0.01451749  0.78202984  0.33077203    -0.77900
C437        C  0.92875757  0.72808868  0.32080400     0.83200
O438        O  0.05717205  0.69754704  0.25773201    -0.79000
O439        O  0.94737389  0.70627814  0.21604762    -0.80500
O440        O  0.96151829  0.82397992  0.23882735    -0.80300
O441        O  0.01707336  0.82262953  0.29825912    -0.78900
Zn442      Zn  0.00082924  0.74243672  0.30485366     1.55700
O443        O  0.92320300  0.78792145  0.23376240    -0.80300
Cd444      Cd  0.00360888  0.79955224  0.25425877     1.59700
Cd445      Cd  0.02432801  0.72573638  0.23115300     1.59600
O446        O  0.03947263  0.80080697  0.21679993    -0.80300
O447        O  0.99361805  0.75314087  0.26000551    -1.90800
Cd448      Cd  0.94603622  0.74540217  0.25004868     1.59900
O449        O  0.05051456  0.75300074  0.19799876    -0.80200
O450        O  0.91891735  0.73270594  0.29220483    -0.78900
C451        C  0.05713098  0.69222011  0.28762026     0.83600
C452        C  0.01950531  0.81130365  0.32638803     0.83300
O453        O  0.95857488  0.73048872  0.32729057    -0.77800
C454        C  0.93263594  0.81654972  0.23158350     0.84100
O455        O  0.03646167  0.70629819  0.30537982    -0.77900
C456        C  0.05321072  0.78270655  0.19613248     0.84200
C457        C  0.96771641  0.68802880  0.20200496     0.84600
O458        O  0.99765880  0.69297817  0.20420191    -0.80400
O459        O  0.57280271  0.02420130  0.98142158    -0.77900
C460        C  0.55890114  0.96827372  0.06324228     0.83200
O461        O  0.49970393  0.93220336  0.94431456    -0.79000
O462        O  0.44844426  0.96054711  0.04559587    -0.80500
O463        O  0.48368283  0.07088814  0.02782170    -0.80300
O464        O  0.54125529  0.06351483  0.96872063    -0.78900
Zn465      Zn  0.54546419  0.98640831  0.99304689     1.55700
O466        O  0.47697239  0.03669539  0.06718520    -0.80300
Cd467      Cd  0.49700629  0.04309017  0.98691636     1.59700
Cd468      Cd  0.47296030  0.96664758  0.96986131     1.59600
O469        O  0.45710683  0.04132286  0.95423951    -0.80300
O470        O  0.50096700  0.99693701  0.99907987    -1.90800
Cd471      Cd  0.48971073  0.99183921  0.04605559     1.59900
O472        O  0.44335294  0.99280351  0.93878299    -0.80200
O473        O  0.53041615  0.97438981  0.07238594    -0.78900
C474        C  0.53005070  0.93012582  0.94366533     0.83600
C475        C  0.56936897  0.05175323  0.97056544     0.83300
O476        O  0.56661080  0.97155103  0.03417387    -0.77800
C477        C  0.47626411  0.06502888  0.05684692     0.84100
O478        O  0.54715585  0.95046352  0.95888306    -0.77900
C479        C  0.43849470  0.02227088  0.93870202     0.84200
C480        C  0.43078646  0.94450442  0.02587732     0.84600
O481        O  0.43816102  0.94221809  0.99656833    -0.80400
C482        C  0.24007079  0.77857983  0.26514744     0.80900
N483        N  0.24391458  0.80022234  0.24231970    -0.77500
C484        C  0.26794032  0.79860715  0.22113901     0.83300
N485        N  0.28881692  0.77425838  0.22300514    -0.77400
C486        C  0.28481743  0.75191650  0.24586735     0.83400
N487        N  0.26057102  0.75444667  0.26697540    -0.79100
N488        N  0.39356255  0.65188030  0.34263329    -0.36000
N489        N  0.36088898  0.60170724  0.31337940    -0.56500
N490        N  0.38454791  0.55565683  0.36077974    -0.36000
N491        N  0.41412696  0.60793167  0.39293421    -0.56500
C492        C  0.37357099  0.66697133  0.32275910     0.27600
C493        C  0.39858691  0.67086702  0.36763147     0.27600
C494        C  0.35912118  0.53986226  0.34798065     0.27600
C495        C  0.39393473  0.54185961  0.38851788     0.27600
C496        C  0.36237202  0.62220116  0.28902978     0.36200
C497        C  0.35447242  0.57359640  0.30043216     0.36200
C498        C  0.42977967  0.63448952  0.40082052     0.36200
C499        C  0.42946528  0.58477451  0.40834854     0.36200
C500        C  0.36596392  0.69605118  0.33515096    -0.21300
C501        C  0.38204199  0.69860254  0.36359691    -0.21300
C502        C  0.35250925  0.51487222  0.36792931    -0.21300
C503        C  0.37474647  0.51579444  0.39299680    -0.21300
C504        C  0.35694590  0.60725537  0.26045892    -0.22300
C505        C  0.35231935  0.57626181  0.26755101    -0.22300
C506        C  0.45480259  0.62854737  0.42137763    -0.22300
C507        C  0.45479296  0.59708441  0.42609874    -0.22300
C508        C  0.36273204  0.65471738  0.29365014    -0.17700
C509        C  0.41958530  0.66443835  0.39267826    -0.17700
C510        C  0.41922505  0.55322026  0.40919245    -0.17700
C511        C  0.34335793  0.54789949  0.31829593    -0.17700
H512        H  0.35036284  0.71349658  0.32499408     0.15200
H513        H  0.38163408  0.71856942  0.37946569     0.15200
H514        H  0.33400580  0.49748431  0.36468267     0.15200
H515        H  0.37603021  0.49960592  0.41262970     0.15200
H516        H  0.35437476  0.61812265  0.23749439     0.13500
H517        H  0.34584172  0.55804725  0.25077776     0.13500
H518        H  0.47094794  0.64525142  0.43235479     0.13500
H519        H  0.47112321  0.58502309  0.44179056     0.13500
H520        H  0.40452331  0.63041050  0.33870422     0.26800
H521        H  0.39572104  0.57478022  0.35050356     0.26800
C522        C  0.51652176  0.99290614  0.22483337     0.80900
N523        N  0.50548942  0.00528040  0.25234436    -0.77500
C524        C  0.47679956  0.01961603  0.25324991     0.83300
N525        N  0.45957864  0.02239828  0.22628877    -0.77400
C526        C  0.46989282  0.01008191  0.19867562     0.83400
N527        N  0.49804030  0.99423419  0.19810212    -0.79100
N528        N  0.59573680  0.88992885  0.33038586    -0.36000
N529        N  0.65218055  0.89870360  0.30060013    -0.56500
N530        N  0.69115799  0.87359769  0.35553438    -0.36000
N531        N  0.63312187  0.86798428  0.38884597    -0.56500
C532        C  0.58652267  0.90801694  0.30569584     0.27600
C533        C  0.57639993  0.89642903  0.35469802     0.27600
C534        C  0.71055144  0.89594385  0.34264952     0.27600
C535        C  0.70137848  0.86620119  0.38554763     0.27600
C536        C  0.63381252  0.89978979  0.27432402     0.36200
C537        C  0.68234019  0.89702189  0.29127585     0.36200
C538        C  0.60200792  0.86147602  0.39392400     0.36200
C539        C  0.65016188  0.84554786  0.40419199     0.36200
C540        C  0.56021363  0.92557299  0.31427135    -0.21300
C541        C  0.55381546  0.91819719  0.34540371    -0.21300
C542        C  0.73424827  0.90257423  0.36493243    -0.21300
C543        C  0.72896508  0.88337700  0.39148164    -0.21300
C544        C  0.65233577  0.89858923  0.24736858    -0.22300
C545        C  0.68333722  0.89651755  0.25820156    -0.22300
C546        C  0.59903430  0.83502015  0.41235352    -0.22300
C547        C  0.62922064  0.82460707  0.41828507    -0.22300
C548        C  0.60201558  0.90899687  0.27603079    -0.17700
C549        C  0.57608837  0.87964136  0.38315800    -0.17700
C550        C  0.68414654  0.84599742  0.40736923    -0.17700
C551        C  0.70634855  0.90913870  0.31107993    -0.17700
H552        H  0.54704203  0.94196837  0.29977271     0.15200
H553        H  0.53442829  0.92726332  0.35945690     0.15200
H554        H  0.75350407  0.91921043  0.36232631     0.15200
H555        H  0.74287302  0.88343435  0.41324330     0.15200
H556        H  0.64461386  0.90140849  0.22293218     0.13500
H557        H  0.70444810  0.89806337  0.24376901     0.13500
H558        H  0.57728481  0.82388810  0.42016497     0.13500
H559        H  0.63418816  0.80357326  0.43118598     0.13500
H560        H  0.61318924  0.87267292  0.33051436     0.26800
H561        H  0.67139467  0.86356658  0.34427221     0.26800
N562        N  0.31220883  0.94800531  0.12537218    -0.36000
N563        N  0.36486450  0.95392546  0.07951004    -0.56500
N564        N  0.34968980  0.90054778  0.04058823    -0.36000
N565        N  0.29949483  0.89119103  0.08739471    -0.56500
C566        C  0.33458948  0.96401559  0.14177865     0.27600
C567        C  0.29754176  0.92910418  0.14618718     0.27600
C568        C  0.38082230  0.90554329  0.03260712     0.27600
C569        C  0.34139506  0.87007897  0.03544424     0.27600
C570        C  0.36223313  0.98150204  0.09470544     0.36200
C571        C  0.38194230  0.95943147  0.05322627     0.36200
C572        C  0.27352676  0.89713608  0.10508155     0.36200
C573        C  0.28941016  0.87385426  0.06254719     0.36200
C574        C  0.33269730  0.95703904  0.17385654    -0.21300
C575        C  0.30911426  0.93470955  0.17666642    -0.21300
C576        C  0.39252250  0.87745217  0.02092959    -0.21300
C577        C  0.36773594  0.85523106  0.02257222    -0.21300
C578        C  0.37759783  0.00469337  0.07808851    -0.22300
C579        C  0.38941301  0.99102747  0.05123268    -0.22300
C580        C  0.24677676  0.88341983  0.09173179    -0.22300
C581        C  0.25662001  0.86927541  0.06424185    -0.22300
C582        C  0.35800758  0.98248889  0.12744581    -0.17700
C583        C  0.27650805  0.90503924  0.13713489    -0.17700
C584        C  0.31040604  0.85691710  0.04295250    -0.17700
C585        C  0.39729668  0.93531830  0.03649414    -0.17700
H586        H  0.34780349  0.96585285  0.19286711     0.15200
H587        H  0.30238439  0.92285730  0.19829299     0.15200
H588        H  0.41640738  0.87323177  0.01253272     0.15200
H589        H  0.36924593  0.83087102  0.01577131     0.15200
H590        H  0.38285603  0.02792736  0.08664405     0.13500
H591        H  0.40458167  0.00233123  0.03402043     0.13500
H592        H  0.22318463  0.88214779  0.10175670     0.13500
H593        H  0.24171471  0.85533198  0.04851686     0.13500
H594        H  0.30851634  0.94849651  0.10082623     0.26800
H595        H  0.33408963  0.91753510  0.04881060     0.26800
C596        C  0.24030016  0.99715039  0.47544655     0.80900
N597        N  0.23560929  0.98650218  0.50511820    -0.77500
C598        C  0.25203237  0.99850499  0.53012173     0.83300
N599        N  0.27361004  0.02160033  0.52504875    -0.77400
C600        C  0.27786344  0.03310071  0.49536741     0.83400
N601        N  0.26122240  0.02070172  0.47042090    -0.79100
C602        C  0.44272561  0.81947460  0.49160741     0.80900
N603        N  0.43746281  0.78926415  0.48300382    -0.77500
C604        C  0.44752609  0.77908781  0.45425048     0.83300
N605        N  0.46263006  0.79919053  0.43460202    -0.77400
C606        C  0.46786436  0.82917944  0.44298955     0.83400
N607        N  0.45807504  0.83910599  0.47172302    -0.79100
N608        N  0.35827445  0.89362056  0.62312194    -0.36000
N609        N  0.40097697  0.86077644  0.66769614    -0.56500
N610        N  0.35781876  0.87373524  0.71907915    -0.36000
N611        N  0.31871963  0.90912870  0.67278271    -0.56500
C612        C  0.38609976  0.89459420  0.60786940     0.27600
C613        C  0.33902241  0.91477934  0.60936222     0.27600
C614        C  0.38306533  0.86007692  0.73430109     0.27600
C615        C  0.34454776  0.89673911  0.73753589     0.27600
C616        C  0.41133743  0.85256317  0.63851321     0.36200
C617        C  0.40687338  0.83593121  0.68660817     0.36200
C618        C  0.29774136  0.91156015  0.64876913     0.36200
C619        C  0.30172966  0.90723497  0.69928072     0.36200
C620        C  0.38458644  0.91647260  0.58358276    -0.21300
C621        C  0.35457259  0.92941524  0.58460341    -0.21300
C622        C  0.38553249  0.87415173  0.76410053    -0.21300
C623        C  0.36186278  0.89752194  0.76586733    -0.21300
C624        C  0.42410088  0.82279934  0.63889440    -0.22300
C625        C  0.42112948  0.81217751  0.66920932    -0.22300
C626        C  0.26684134  0.91163055  0.65965743    -0.22300
C627        C  0.26926959  0.90830569  0.69193194    -0.22300
C628        C  0.40923925  0.87146130  0.61129326    -0.17700
C629        C  0.30737459  0.91927514  0.61840042    -0.17700
C630        C  0.31603498  0.91432745  0.72850452    -0.17700
C631        C  0.40308680  0.83600065  0.71995786    -0.17700
H632        H  0.40261644  0.92136720  0.56605024     0.15200
H633        H  0.34504639  0.94681969  0.56856113     0.15200
H634        H  0.40306311  0.86890970  0.78228062     0.15200
H635        H  0.35750879  0.91269416  0.78599036     0.15200
H636        H  0.43463117  0.81001989  0.61940321     0.13500
H637        H  0.42935131  0.78966578  0.67737591     0.13500
H638        H  0.24512991  0.91445296  0.64592660     0.13500
H639        H  0.24927947  0.90778475  0.70793543     0.13500
H640        H  0.35176890  0.87721446  0.64013829     0.26800
H641        H  0.34949228  0.86666163  0.69679339     0.26800
N642        N  0.41133656  0.11125162  0.40451460    -0.36000
N643        N  0.42552471  0.15305532  0.35118766    -0.56500
N644        N  0.39458204  0.20666915  0.38207453    -0.36000
N645        N  0.37630335  0.16296718  0.43175812    -0.56500
C646        C  0.41823549  0.09000795  0.38195941     0.27600
C647        C  0.39258446  0.09666975  0.42580385     0.27600
C648        C  0.40231307  0.21991321  0.35371493     0.27600
C649        C  0.36987226  0.22254879  0.39581406     0.27600
C650        C  0.43838204  0.12603777  0.34021599     0.36200
C651        C  0.43302847  0.17536503  0.32964162     0.36200
C652        C  0.37962818  0.14330252  0.45635484     0.36200
C653        C  0.36959976  0.19091993  0.44442514     0.36200
C654        C  0.40515079  0.06123209  0.38979389    -0.21300
C655        C  0.38850084  0.06557703  0.41735301    -0.21300
C656        C  0.38274672  0.24573763  0.34963095    -0.21300
C657        C  0.36194824  0.24696847  0.37562272    -0.21300
C658        C  0.45299694  0.13106241  0.31131073    -0.22300
C659        C  0.44938309  0.16189640  0.30452896    -0.22300
C660        C  0.37474447  0.15848696  0.48492415    -0.22300
C661        C  0.36912664  0.18910701  0.47735187    -0.22300
C662        C  0.43520591  0.09605390  0.35405856    -0.17700
C663        C  0.37845842  0.11116385  0.45211840    -0.17700
C664        C  0.35596841  0.21496512  0.42647329    -0.17700
C665        C  0.42540228  0.20774656  0.33132768    -0.17700
H666        H  0.40644411  0.03958908  0.37648306     0.15200
H667        H  0.37468348  0.04796119  0.42952011     0.15200
H668        H  0.38249887  0.26128311  0.32940291     0.15200
H669        H  0.34348775  0.26412977  0.37931520     0.15200
H670        H  0.46467978  0.11419033  0.29619134     0.13500
H671        H  0.45782128  0.17291438  0.28307270     0.13500
H672        H  0.37374500  0.14817105  0.50835246     0.13500
H673        H  0.36306258  0.20762599  0.49375274     0.13500
H674        H  0.41896557  0.13440588  0.40527240     0.26800
H675        H  0.40646358  0.18773701  0.39181107     0.26800
N676        N  0.14273201  0.87682914  0.37649980    -0.36000
N677        N  0.09214397  0.83700416  0.35593972    -0.56500
N678        N  0.04402618  0.87409034  0.39057887    -0.36000
N679        N  0.09589878  0.91832007  0.40627565    -0.56500
C680        C  0.15703656  0.85892295  0.35456837     0.27600
C681        C  0.15881882  0.90401870  0.37829408     0.27600
C682        C  0.02617065  0.85881898  0.36802692     0.27600
C683        C  0.02836057  0.89980457  0.40145360     0.27600
C684        C  0.11725407  0.81760687  0.35540792     0.36200
C685        C  0.06640016  0.81882839  0.35959522     0.36200
C686        C  0.12462864  0.92540224  0.41910984     0.36200
C687        C  0.07490876  0.92037940  0.43030594     0.36200
C688        C  0.18284357  0.87484527  0.34201232    -0.21300
C689        C  0.18396433  0.90361038  0.35714302    -0.21300
C690        C  0.99777777  0.87505339  0.36469373    -0.21300
C691        C  0.99899390  0.90060691  0.38592711    -0.21300
C692        C  0.10768289  0.78685202  0.35849774    -0.22300
C693        C  0.07517703  0.78780377  0.36181417    -0.22300
C694        C  0.12222612  0.93157959  0.45125140    -0.22300
C695        C  0.09076356  0.92761994  0.45857605    -0.22300
C696        C  0.14775264  0.82799897  0.34786499    -0.17700
C697        C  0.15286933  0.92677031  0.40161730    -0.17700
C698        C  0.04156511  0.92107136  0.42518396    -0.17700
C699        C  0.03581197  0.82984250  0.35296515    -0.17700
H700        H  0.19937499  0.86642751  0.32436430     0.15200
H701        H  0.20168379  0.92169278  0.35372425     0.15200
H702        H  0.97807950  0.86892868  0.34911213     0.15200
H703        H  0.98054639  0.91787654  0.38907350     0.15200
H704        H  0.12248792  0.76620791  0.35820825     0.13500
H705        H  0.05943498  0.76826960  0.36560310     0.13500
H706        H  0.14124913  0.93764633  0.46769375     0.13500
H707        H  0.08067530  0.93023203  0.48203216     0.13500
H708        H  0.12426077  0.86985531  0.39129881     0.26800
H709        H  0.06612300  0.86679951  0.39912085     0.26800
O710        O  0.76178688  0.07906139  0.21587613    -0.77900
C711        C  0.67811977  0.05922695  0.26769445     0.83200
O712        O  0.80478564  0.00606481  0.30697432    -0.79000
O713        O  0.70257351  0.95611610  0.27966797    -0.80500
O714        O  0.72530545  0.98477264  0.16933556    -0.80300
O715        O  0.77327989  0.04780270  0.17541875    -0.78900
Zn716      Zn  0.75041075  0.05165487  0.25550738     1.55700
O717        O  0.68438522  0.98011138  0.20233308    -0.80300
Cd718      Cd  0.76340345  0.00278808  0.19766864     1.59700
Cd719      Cd  0.77713906  0.97889355  0.27485753     1.59600
O720        O  0.80333476  0.97022120  0.20126944    -0.80300
O721        O  0.74929707  0.00712407  0.24361819    -1.90800
Cd722      Cd  0.70364628  0.99417425  0.24612881     1.59900
O723        O  0.81166203  0.95268586  0.25071669    -0.80200
O724        O  0.67387541  0.03207204  0.25581186    -0.78900
C725        C  0.80524808  0.03581086  0.30857216     0.83600
C726        C  0.77003823  0.07558459  0.18672281     0.83300
O727        O  0.70645020  0.06998490  0.27146412    -0.77800
C728        C  0.69604988  0.97783096  0.17455602     0.84100
O729        O  0.78600732  0.05202680  0.29099647    -0.77900
C730        C  0.81935224  0.95335461  0.22152656     0.84200
C731        C  0.72079168  0.93900268  0.29751209     0.84600
O732        O  0.75044771  0.94508518  0.30026607    -0.80400
O733        O  0.81315677  0.22517102  0.94849382    -0.77900
C734        C  0.81475647  0.30721437  0.00761605     0.83200
O735        O  0.75085264  0.19346455  0.05108047    -0.79000
O736        O  0.70498193  0.29614097  0.03293879    -0.80500
O737        O  0.71865078  0.28259093  0.91821072    -0.80300
O738        O  0.77417879  0.22650087  0.91265713    -0.78900
Zn739      Zn  0.79241751  0.23811026  0.99089732     1.55700
O740        O  0.72544806  0.32014240  0.95454518    -0.80300
Cd741      Cd  0.73432063  0.24094325  0.94141932     1.59700
Cd742      Cd  0.72165818  0.22081792  0.01968340     1.59600
O743        O  0.69843246  0.20459302  0.94453535    -0.80300
O744        O  0.74750716  0.24901897  0.98738360    -1.90800
Cd745      Cd  0.74195246  0.29583863  0.99659303     1.59900
O746        O  0.69442083  0.18704836  0.99459902    -0.80200
O747        O  0.78678536  0.31924838  0.00815396    -0.78900
C748        C  0.78062675  0.18820591  0.04810087     0.83600
C749        C  0.80368050  0.22237400  0.91968934     0.83300
O750        O  0.81772015  0.27800094  0.00166086    -0.77800
C751        C  0.71749495  0.31157008  0.92622280     0.84100
O752        O  0.79601264  0.20256402  0.02603374    -0.77900
C753        C  0.68812180  0.18433776  0.96496843     0.84200
C754        C  0.68578980  0.27743997  0.04795376     0.84600
O755        O  0.68912990  0.24778602  0.04643776    -0.80400
C756        C  0.28255073  0.26448293  0.80865367     0.80900
N757        N  0.30277880  0.27066100  0.78435000    -0.77500
C758        C  0.29633080  0.29374260  0.76346094     0.83300
N759        N  0.26935931  0.31036351  0.76640568    -0.77400
C760        C  0.24856836  0.30406995  0.78994926     0.83400
N761        N  0.25522271  0.28119287  0.81135221    -0.79100
C762        C  0.49136690  0.26861106  0.95205043     0.80900
N763        N  0.47245085  0.28552910  0.97160862    -0.77500
C764        C  0.45517124  0.27159536  0.99449969     0.83300
N765        N  0.45713335  0.24038425  0.99821676    -0.77400
C766        C  0.47594176  0.22292360  0.97915241     0.83400
N767        N  0.49280710  0.23706567  0.95567025    -0.79100
C768        C  0.46153116  0.47453225  0.73819910     0.80900
N769        N  0.43558148  0.49005022  0.74913470    -0.77500
C770        C  0.43861541  0.50917506  0.77488180     0.83300
N771        N  0.46723391  0.51201939  0.79007098    -0.77400
C772        C  0.49303178  0.49688049  0.77904991     0.83400
N773        N  0.48979454  0.47840539  0.75326284    -0.79100
C774        C  0.20187328  0.50938972  0.00880106     0.80900
N775        N  0.20611948  0.48818977  0.03221577    -0.77500
C776        C  0.23085727  0.49101332  0.05295361     0.83300
N777        N  0.25208929  0.51495217  0.04929098    -0.77400
C778        C  0.24771275  0.53643614  0.02614665     0.83400
N779        N  0.22267942  0.53325774  0.00599870    -0.79100
N780        N  0.35294888  0.60676194  0.89839781    -0.36000
N781        N  0.34159973  0.65955801  0.93559513    -0.56500
N782        N  0.36690754  0.70297195  0.88823599    -0.36000
N783        N  0.37511733  0.64891670  0.84749540    -0.56500
C784        C  0.33416109  0.59509332  0.92138412     0.27600
C785        C  0.34791047  0.58947798  0.87210636     0.27600
C786        C  0.34544061  0.72142805  0.90366596     0.27600
C787        C  0.37522858  0.71632058  0.86021860     0.27600
C788        C  0.34250097  0.63792016  0.95858039     0.36200
C789        C  0.34289958  0.68738773  0.95006099     0.36200
C790        C  0.38286892  0.62000420  0.83699960     0.36200
C791        C  0.39642560  0.66874698  0.83428823     0.36200
C792        C  0.31708737  0.56967916  0.90969028    -0.21300
C793        C  0.32589691  0.56607782  0.87831813    -0.21300
C794        C  0.34020429  0.74761057  0.88491661    -0.21300
C795        C  0.35959218  0.74477212  0.85797744    -0.21300
C796        C  0.34461834  0.65194013  0.98823593    -0.22300
C797        C  0.34489720  0.68358872  0.98280432    -0.22300
C798        C  0.40893246  0.62151897  0.81705725    -0.22300
C799        C  0.41749311  0.65228134  0.81531066    -0.22300
C800        C  0.33309636  0.60714468  0.95254391    -0.17700
C801        C  0.36613063  0.59228227  0.84446836    -0.17700
C802        C  0.39567498  0.70171792  0.83714575    -0.17700
C803        C  0.33222051  0.71421892  0.93448946    -0.17700
H804        H  0.30034405  0.55519294  0.92243525     0.15200
H805        H  0.31773544  0.54794705  0.86215448     0.15200
H806        H  0.32456933  0.76693963  0.89019916     0.15200
H807        H  0.36088836  0.76108417  0.83843462     0.15200
H808        H  0.34337452  0.64065482  0.01118180     0.13500
H809        H  0.34376364  0.70172552  0.00077348     0.13500
H810        H  0.42092276  0.60245702  0.80523886     0.13500
H811        H  0.43697381  0.66139132  0.80139027     0.13500
H812        H  0.36997031  0.62440165  0.90100529     0.26800
H813        H  0.37633457  0.68203539  0.89650566     0.26800
N814        N  0.59729869  0.38781956  0.86455714    -0.36000
N815        N  0.64793840  0.42797106  0.85108549    -0.56500
N816        N  0.69548118  0.38442089  0.87611122    -0.36000
N817        N  0.64280540  0.34130525  0.88725853    -0.56500
C818        C  0.58305073  0.40939026  0.84614978     0.27600
C819        C  0.58002082  0.36150320  0.86200924     0.27600
C820        C  0.71292550  0.40087754  0.85429651     0.27600
C821        C  0.71118946  0.35791766  0.88485123     0.27600
C822        C  0.62436778  0.44899647  0.85160767     0.36200
C823        C  0.67511325  0.44420173  0.85106162     0.36200
C824        C  0.61453949  0.32813422  0.89519636     0.36200
C825        C  0.66500441  0.32790099  0.90628254     0.36200
C826        C  0.55622589  0.39666389  0.83156886    -0.21300
C827        C  0.55421500  0.36616856  0.84183262    -0.21300
C828        C  0.74090864  0.38437502  0.84939818    -0.21300
C829        C  0.74015162  0.35787659  0.86912004    -0.21300
C830        C  0.63630225  0.47911459  0.85231002    -0.22300
C831        C  0.66872793  0.47605012  0.85166463    -0.22300
C832        C  0.61885019  0.30601043  0.91869825    -0.22300
C833        C  0.65063242  0.30565387  0.92548694    -0.22300
C834        C  0.59318900  0.44060555  0.84427075    -0.17700
C835        C  0.58476241  0.33539743  0.88128554    -0.17700
C836        C  0.69831832  0.33379117  0.90538883    -0.17700
C837        C  0.70322114  0.43055406  0.84031891    -0.17700
H838        H  0.53955065  0.40830110  0.81587921     0.15200
H839        H  0.53549090  0.34961068  0.83599925     0.15200
H840        H  0.76007993  0.39083280  0.83368668     0.15200
H841        H  0.75821023  0.33995994  0.87053399     0.15200
H842        H  0.62312371  0.50071444  0.85027206     0.13500
H843        H  0.68537621  0.49486394  0.84773147     0.13500
H844        H  0.60105428  0.29146439  0.92984849     0.13500
H845        H  0.66184922  0.29003319  0.94223317     0.13500
H846        H  0.61618916  0.39159349  0.88030863     0.26800
H847        H  0.67362794  0.39097860  0.88540723     0.26800
N848        N  0.41130192  0.34765278  0.63356241    -0.36000
N849        N  0.43866828  0.38903530  0.58639733    -0.56500
N850        N  0.38180585  0.37947507  0.54573381    -0.36000
N851        N  0.35831215  0.33296841  0.59424377    -0.56500
C852        C  0.44048019  0.35227049  0.64578818     0.27600
C853        C  0.39742853  0.32492325  0.65056105     0.27600
C854        C  0.40124464  0.39587106  0.52582208     0.27600
C855        C  0.36071985  0.36140991  0.52851628     0.27600
C856        C  0.45691868  0.39628459  0.61215981     0.36200
C857        C  0.44198251  0.41335580  0.56626251     0.36200
C858        C  0.34608644  0.32804663  0.62330726     0.36200
C859        C  0.33372362  0.34106852  0.57553418     0.36200
C860        C  0.44576961  0.33178651  0.67069600    -0.21300
C861        C  0.41841356  0.31413221  0.67358151    -0.21300
C862        C  0.39163009  0.38892857  0.49491606    -0.21300
C863        C  0.36667858  0.36697482  0.49655745    -0.21300
C864        C  0.47254411  0.42442128  0.60792796    -0.22300
C865        C  0.46344596  0.43500821  0.57894179    -0.22300
C866        C  0.31341912  0.33221018  0.62301888    -0.22300
C867        C  0.30553404  0.34066093  0.59251771    -0.22300
C868        C  0.45724877  0.38000952  0.64116818    -0.17700
C869        C  0.36460142  0.31929680  0.64962119    -0.17700
C870        C  0.33609589  0.34161420  0.54239780    -0.17700
C871        C  0.42733993  0.41622500  0.53588441    -0.17700
H872        H  0.46601028  0.33166002  0.68678914     0.15200
H873        H  0.41347244  0.29739241  0.69214545     0.15200
H874        H  0.40197786  0.39809423  0.47338615     0.15200
H875        H  0.35412744  0.35687774  0.47643306     0.15200
H876        H  0.48838201  0.43648422  0.62428307     0.13500
H877        H  0.47156119  0.45663759  0.56855210     0.13500
H878        H  0.29710904  0.32934796  0.64258787     0.13500
H879        H  0.28175344  0.34489927  0.58342439     0.13500
H880        H  0.39975358  0.36275790  0.61809251     0.26800
H881        H  0.38252471  0.38114667  0.57038244     0.26800
N882        N  0.33506644  0.35613449  0.10768359    -0.36000
N883        N  0.39175689  0.34266579  0.14731140    -0.56500
N884        N  0.36094266  0.36492772  0.20454779    -0.36000
N885        N  0.30750406  0.38145792  0.16325714    -0.56500
C886        C  0.35756046  0.35407086  0.08524529     0.27600
C887        C  0.31117071  0.37332487  0.09521950     0.27600
C888        C  0.39059214  0.35797398  0.21600342     0.27600
C889        C  0.34868604  0.39040463  0.22018597     0.27600
C890        C  0.40104017  0.33176467  0.11853944     0.36200
C891        C  0.41170439  0.32946928  0.16886382     0.36200
C892        C  0.28168696  0.37867858  0.14456259     0.36200
C893        C  0.29723585  0.38854417  0.19231887     0.36200
C894        C  0.34727048  0.36843395  0.05755399    -0.21300
C895        C  0.31794972  0.38102170  0.06400540    -0.21300
C896        C  0.39711674  0.37882100  0.24064790    -0.21300
C897        C  0.37125047  0.39960385  0.24272700    -0.21300
C898        C  0.42741512  0.31276829  0.12173051    -0.22300
C899        C  0.43390803  0.31106756  0.15337627    -0.22300
C900        C  0.25428292  0.38372186  0.16191647    -0.22300
C901        C  0.26416041  0.38965946  0.19252981    -0.22300
C902        C  0.38678018  0.33886014  0.08896305    -0.17700
C903        C  0.28430427  0.38348320  0.11203783    -0.17700
C904        C  0.31735497  0.40393143  0.21387609    -0.17700
C905        C  0.41189981  0.33490948  0.20218886    -0.17700
H906        H  0.36002860  0.37042528  0.03539901     0.15200
H907        H  0.30350304  0.39467073  0.04782170     0.15200
H908        H  0.41891807  0.38010712  0.25448304     0.15200
H909        H  0.36926704  0.41900062  0.25915615     0.15200
H910        H  0.44045122  0.30082846  0.10324910     0.13500
H911        H  0.45315852  0.29781075  0.16372953     0.13500
H912        H  0.23023446  0.38610108  0.15280224     0.13500
H913        H  0.24916241  0.39742631  0.21180586     0.13500
H914        H  0.33611446  0.34613632  0.13016886     0.26800
H915        H  0.34962523  0.35212087  0.18666447     0.26800
N916        N  0.34905215  0.13731236  0.93024403    -0.36000
N917        N  0.40872897  0.08304603  0.95596499    -0.56500
N918        N  0.36410351  0.04805867  0.88922633    -0.36000
N919        N  0.32727615  0.10366699  0.87261477    -0.56500
C920        C  0.36511840  0.14895924  0.95554735     0.27600
C921        C  0.33596933  0.16152197  0.91473782     0.27600
C922        C  0.38733581  0.02826511  0.89947179     0.27600
C923        C  0.34863671  0.03624495  0.86337566     0.27600
C924        C  0.38694487  0.09982601  0.97151123     0.36200
C925        C  0.39417359  0.05593728  0.94896519     0.36200
C926        C  0.31913927  0.13318261  0.86449883     0.36200
C927        C  0.31902889  0.08495759  0.84779473     0.36200
C928        C  0.36118180  0.18086573  0.95719541    -0.21300
C929        C  0.34201803  0.18889148  0.93182512    -0.21300
C930        C  0.38747056  0.00282466  0.87895135    -0.21300
C931        C  0.36254108  0.00742575  0.85679345    -0.21300
C932        C  0.35933850  0.08295689  0.97589775    -0.22300
C933        C  0.36371489  0.05474816  0.96115235    -0.22300
C934        C  0.30654585  0.13328360  0.83390408    -0.22300
C935        C  0.30562960  0.10285361  0.82379290    -0.22300
C936        C  0.38858283  0.13205854  0.97197584    -0.17700
C937        C  0.32227018  0.16033770  0.88393406    -0.17700
C938        C  0.32370300  0.05206065  0.84552066    -0.17700
C939        C  0.40684733  0.03506349  0.92718285    -0.17700
H940        H  0.37290860  0.19656264  0.97362665     0.15200
H941        H  0.33565999  0.21250094  0.92525822     0.15200
H942        H  0.40312627  0.98284524  0.88017105     0.15200
H943        H  0.35623197  0.99186643  0.83738442     0.15200
H944        H  0.33814015  0.09136564  0.98716547     0.13500
H945        H  0.34637522  0.03616065  0.95831529     0.13500
H946        H  0.29802535  0.15309186  0.82041811     0.13500
H947        H  0.29691600  0.09497680  0.80084137     0.13500
H948        H  0.35010161  0.11400126  0.92237605     0.26800
H949        H  0.35929905  0.06957860  0.90025707     0.26800
N950        N  0.13488937  0.42491326  0.85543668    -0.36000
N951        N  0.08173152  0.44369286  0.89338410    -0.56500
N952        N  0.03510588  0.40519007  0.85834837    -0.36000
N953        N  0.08988977  0.38348664  0.82255892    -0.56500
C954        C  0.14896444  0.43539829  0.88223787     0.27600
C955        C  0.15358132  0.40276321  0.84336287     0.27600
C956        C  0.01923479  0.41240103  0.88570588     0.27600
C957        C  0.02353111  0.37809415  0.84519871     0.27600
C958        C  0.10394006  0.46614228  0.89757976     0.36200
C959        C  0.05366871  0.45752438  0.89870871     0.36200
C960        C  0.11538711  0.38495859  0.80328314     0.36200
C961        C  0.06507768  0.37482501  0.80399840     0.36200
C962        C  0.17717416  0.41961974  0.88762350    -0.21300
C963        C  0.18030084  0.39890290  0.86262219    -0.21300
C964        C  0.99595776  0.38960786  0.88972057    -0.21300
C965        C  0.99865074  0.36811101  0.86436658    -0.21300
C966        C  0.09047519  0.49429990  0.90549220    -0.22300
C967        C  0.05845618  0.48918426  0.90559085    -0.22300
C968        C  0.10706690  0.37736795  0.77240282    -0.22300
C969        C  0.07491529  0.37173505  0.77263992    -0.22300
C970        C  0.13610740  0.45933242  0.90061667    -0.17700
C971        C  0.14660862  0.38716924  0.81489751    -0.17700
C972        C  0.03597033  0.36362850  0.81637039    -0.17700
C973        C  0.02608938  0.43994196  0.90513213    -0.17700
H974        H  0.19349515  0.42248977  0.90746110     0.15200
H975        H  0.19972485  0.38272325  0.85922697     0.15200
H976        H  0.97892973  0.38844460  0.90884437     0.15200
H977        H  0.98412426  0.34744215  0.86074644     0.15200
H978        H  0.10272201  0.51566751  0.91196103     0.13500
H979        H  0.04127865  0.50695643  0.91124322     0.13500
H980        H  0.12272665  0.37523455  0.75220786     0.13500
H981        H  0.06065859  0.36454838  0.75236028     0.13500
H982        H  0.11391526  0.43306249  0.84510305     0.26800
H983        H  0.05296360  0.41891886  0.84847400     0.26800
C984        C  0.76106228  0.77582439  0.21541388     0.80900
N985        N  0.74104582  0.77673839  0.24064368    -0.77500
C986        C  0.74694051  0.75923256  0.26663026     0.83300
N987        N  0.77239806  0.74021530  0.26695828    -0.77400
C988        C  0.79206495  0.73794333  0.24192631     0.83400
N989        N  0.78622976  0.75589522  0.21579142    -0.79100
N990        N  0.64221936  0.63994439  0.34933450    -0.36000
N991        N  0.60774639  0.59700823  0.39194424    -0.56500
N992        N  0.61246043  0.64302908  0.44360337    -0.36000
N993        N  0.64997603  0.68198611  0.40018391    -0.56500
C994        C  0.64487735  0.61250144  0.33410710     0.27600
C995        C  0.66499381  0.65911556  0.33822269     0.27600
C996        C  0.60165853  0.61680105  0.45828206     0.27600
C997        C  0.63207769  0.65951287  0.46365357     0.27600
C998        C  0.60033582  0.58812299  0.36183998     0.36200
C999        C  0.58125427  0.59194620  0.40939078     0.36200
C1000       C  0.65421383  0.70111678  0.37540337     0.36200
C1001       C  0.64265517  0.70028330  0.42482505     0.36200
C1002       C  0.66997560  0.61387598  0.31289977    -0.21300
C1003       C  0.68274909  0.64368742  0.31544805    -0.21300
C1004       C  0.61422881  0.61679386  0.48899394    -0.21300
C1005       C  0.63370392  0.64343979  0.49219357    -0.21300
C1006       C  0.56915347  0.57777450  0.35994404    -0.22300
C1007       C  0.55684629  0.58081708  0.38980621    -0.22300
C1008       C  0.64939501  0.73194502  0.38394932    -0.22300
C1009       C  0.64205363  0.73138480  0.41560118    -0.22300
C1010       C  0.62165671  0.58897704  0.33606569    -0.17700
C1011       C  0.66762776  0.69065976  0.34724586    -0.17700
C1012       C  0.64611406  0.68934937  0.45578279    -0.17700
C1013       C  0.58066915  0.59418805  0.44315767    -0.17700
H1014       H  0.67724863  0.59585075  0.29639795     0.15200
H1015       H  0.70217273  0.65313220  0.30167529     0.15200
H1016       H  0.61050673  0.59922004  0.50700617     0.15200
H1017       H  0.64699511  0.65037303  0.51322448     0.15200
H1018       H  0.55624957  0.56993864  0.33898104     0.13500
H1019       H  0.53233060  0.57607462  0.39584685     0.13500
H1020       H  0.65250340  0.75254397  0.36941812     0.13500
H1021       H  0.63819334  0.75153366  0.43045360     0.13500
H1022       H  0.62377608  0.64612993  0.36450426     0.26800
H1023       H  0.60562109  0.64982696  0.42078066     0.26800
C1024       C  0.73500371  0.53942321  0.00364089     0.80900
N1025       N  0.71673640  0.51344302  0.00133535    -0.77500
C1026       C  0.71958955  0.49016255  0.02272312     0.83300
N1027       N  0.74142761  0.49302650  0.04663325    -0.77400
C1028       C  0.76007715  0.51893494  0.04903096     0.83400
N1029       N  0.75663743  0.54216336  0.02730770    -0.79100
C1030       C  0.47901981  0.71402637  0.05022890     0.80900
N1031       N  0.50122838  0.73614506  0.05742825    -0.77500
C1032       C  0.53091523  0.73437187  0.04562771     0.83300
N1033       N  0.53869304  0.71039252  0.02640703    -0.77400
C1034       C  0.51727845  0.68756437  0.01948127     0.83400
N1035       N  0.48709881  0.68959952  0.03098209    -0.79100
C1036       C  0.52414071  0.49116744  0.20930719     0.80900
N1037       N  0.49972572  0.51150171  0.20708796    -0.77500
C1038       C  0.49980613  0.53845651  0.22401219     0.83300
N1039       N  0.52471064  0.54520375  0.24322564    -0.77400
C1040       C  0.54940078  0.52505328  0.24592760     0.83400
N1041       N  0.54933362  0.49810638  0.22876899    -0.79100
N1042       N  0.37980100  0.67016439  0.16655169    -0.36000
N1043       N  0.34509101  0.60984546  0.16830971    -0.56500
N1044       N  0.29181524  0.63425322  0.13100163    -0.36000
N1045       N  0.32773692  0.70988994  0.10968254    -0.56500
C1046       C  0.40320962  0.65243347  0.17858308     0.27600
C1047       C  0.39265510  0.69799905  0.15855247     0.27600
C1048       C  0.27784683  0.60726143  0.14116674     0.27600
C1049       C  0.27145618  0.65082478  0.11206617     0.27600
C1050       C  0.37365396  0.60080574  0.18004884     0.36200
C1051       C  0.32578607  0.58444414  0.16903351     0.36200
C1052       C  0.34434626  0.71806413  0.13598822     0.36200
C1053       C  0.29951883  0.69949904  0.12045545     0.36200
C1054       C  0.43124167  0.66988646  0.17990581    -0.21300
C1055       C  0.42464637  0.69854895  0.16657280    -0.21300
C1056       C  0.24744702  0.60641208  0.12765425    -0.21300
C1057       C  0.24375748  0.63332858  0.10870279    -0.21300
C1058       C  0.37251111  0.56934417  0.18791848    -0.22300
C1059       C  0.34234910  0.55913485  0.18124965    -0.22300
C1060       C  0.32583289  0.71473454  0.16292698    -0.22300
C1061       C  0.29746479  0.70218701  0.15309133    -0.22300
C1062       C  0.40089318  0.62012617  0.18491714    -0.17700
C1063       C  0.37766405  0.71808852  0.13672255    -0.17700
C1064       C  0.27844612  0.68237335  0.10147252    -0.17700
C1065       C  0.29271532  0.58386810  0.16160216    -0.17700
H1066       H  0.45459794  0.66196662  0.18725933     0.15200
H1067       H  0.44174886  0.71673125  0.16122755     0.15200
H1068       H  0.22989883  0.58810436  0.13068825     0.15200
H1069       H  0.22257669  0.63993096  0.09559550     0.15200
H1070       H  0.39120984  0.55525291  0.19830418     0.13500
H1071       H  0.33358491  0.53566754  0.18522497     0.13500
H1072       H  0.33372921  0.71681913  0.18724367     0.13500
H1073       H  0.27845690  0.69389287  0.16814192     0.13500
H1074       H  0.35691487  0.66280947  0.16081560     0.26800
H1075       H  0.31449247  0.64217112  0.13677798     0.26800
N1076       N  0.58386896  0.38879574  0.07325607    -0.36000
N1077       N  0.56675241  0.34335583  0.12126267    -0.56500
N1078       N  0.61024512  0.29454408  0.09965681    -0.36000
N1079       N  0.63034863  0.34164975  0.05450430    -0.56500
C1080       C  0.57161630  0.40652072  0.09657652     0.27600
C1081       C  0.60690894  0.40578601  0.05962762     0.27600
C1082       C  0.60259626  0.28477493  0.12955154     0.27600
C1083       C  0.63966633  0.28385249  0.09133489     0.27600
C1084       C  0.54273753  0.36405573  0.12059701     0.36200
C1085       C  0.55418465  0.31667137  0.13217259     0.36200
C1086       C  0.62944320  0.36230078  0.03039869     0.36200
C1087       C  0.64238468  0.31518874  0.04232436     0.36200
C1088       C  0.58588691  0.43578292  0.09693498    -0.21300
C1089       C  0.60841947  0.43532986  0.07336697    -0.21300
C1090       C  0.62756213  0.26629377  0.14035665    -0.21300
C1091       C  0.65081159  0.26571181  0.11638604    -0.21300
C1092       C  0.51470344  0.35086836  0.13090926    -0.22300
C1093       C  0.52167105  0.32023259  0.13704198    -0.22300
C1094       C  0.64069950  0.34920466  0.00270569    -0.22300
C1095       C  0.64804409  0.31892174  0.01004973    -0.22300
C1096       C  0.54849984  0.39581480  0.11765589    -0.17700
C1097       C  0.62700033  0.39424207  0.03598270    -0.17700
C1098       C  0.65529097  0.29136506  0.06154819    -0.17700
C1099       C  0.57337312  0.29331041  0.14572932    -0.17700
H1100       H  0.58125630  0.45500412  0.11302229     0.15200
H1101       H  0.62462554  0.45419210  0.06769116     0.15200
H1102       H  0.62923827  0.25493463  0.16323969     0.15200
H1103       H  0.67349512  0.25386236  0.11763148     0.15200
H1104       H  0.49221076  0.36245130  0.13484861     0.13500
H1105       H  0.50545205  0.30314459  0.14671561     0.13500
H1106       H  0.64485066  0.36081423  0.98028517     0.13500
H1107       H  0.65897577  0.30225669  0.99428629     0.13500
H1108       H  0.57716327  0.36600283  0.06721455     0.26800
H1109       H  0.59545694  0.30785273  0.08509474     0.26800
N1110       N  0.62059492  0.60901825  0.89823794    -0.36000
N1111       N  0.57100871  0.63483437  0.85584722    -0.56500
N1112       N  0.61653369  0.62934950  0.80345480    -0.36000
N1113       N  0.66170514  0.59804878  0.84770859    -0.56500
C1114       C  0.59358435  0.60303048  0.91412268     0.27600
C1115       C  0.64377229  0.59129434  0.91103752     0.27600
C1116       C  0.58936133  0.63966352  0.78907295     0.27600
C1117       C  0.63239031  0.60903566  0.78397150     0.27600
C1118       C  0.56319260  0.64263220  0.88607491     0.36200
C1119       C  0.56525373  0.66049291  0.83793659     0.36200
C1120       C  0.68314490  0.60197356  0.87121983     0.36200
C1121       C  0.67688561  0.60417634  0.82072498     0.36200
C1122       C  0.59940302  0.58025818  0.93689097    -0.21300
C1123       C  0.63145968  0.57317085  0.93521690    -0.21300
C1124       C  0.58804425  0.62609401  0.75896791    -0.21300
C1125       C  0.61470417  0.60638421  0.75603233    -0.21300
C1126       C  0.55313490  0.67323775  0.88763657    -0.22300
C1127       C  0.55471525  0.68461784  0.85740921    -0.22300
C1128       C  0.71238439  0.61083728  0.85936476    -0.22300
C1129       C  0.70844163  0.61180229  0.82689603    -0.22300
C1130       C  0.56684872  0.62284332  0.91259358    -0.17700
C1131       C  0.67599222  0.59405540  0.90239328    -0.17700
C1132       C  0.66342880  0.59593247  0.79153820    -0.17700
C1133       C  0.56700089  0.66087855  0.80407598    -0.17700
H1134       H  0.58286198  0.57151945  0.95436572     0.15200
H1135       H  0.64442077  0.55736141  0.95051079     0.15200
H1136       H  0.56953855  0.62933682  0.74126046     0.15200
H1137       H  0.62077386  0.59256368  0.73537579     0.15200
H1138       H  0.54661798  0.68645514  0.90856848     0.13500
H1139       H  0.54940385  0.70839214  0.85125940     0.13500
H1140       H  0.73420459  0.61518240  0.87254317     0.13500
H1141       H  0.72655327  0.61720303  0.80977048     0.13500
H1142       H  0.62407298  0.62692739  0.88186604     0.26800
H1143       H  0.62432947  0.63703396  0.82573626     0.26800
N1144       N  0.86233929  0.57678750  0.19210248    -0.36000
N1145       N  0.90953559  0.62647139  0.20353368    -0.56500
N1146       N  0.95185492  0.61160833  0.15177959    -0.36000
N1147       N  0.90406490  0.56423014  0.13732104    -0.56500
C1148       C  0.84521962  0.59886941  0.20697599     0.27600
C1149       C  0.84257819  0.56266500  0.17127876     0.27600
C1150       C  0.96111352  0.64145636  0.15937182     0.27600
C1151       C  0.95849096  0.60506540  0.12067168     0.27600
C1152       C  0.89147378  0.62434317  0.22968060     0.36200
C1153       C  0.93637521  0.64123936  0.21242332     0.36200
C1154       C  0.88491241  0.53897786  0.14036483     0.36200
C1155       C  0.92894638  0.55488458  0.11964297     0.36200
C1156       C  0.81363184  0.59732228  0.19732019    -0.21300
C1157       C  0.81189857  0.57411777  0.17460541    -0.21300
C1158       C  0.97521980  0.65403327  0.13250375    -0.21300
C1159       C  0.97364766  0.63121264  0.10828509    -0.21300
C1160       C  0.90679194  0.63759449  0.25561260    -0.22300
C1161       C  0.93577404  0.64764475  0.24489361    -0.22300
C1162       C  0.89743871  0.51357703  0.12472344    -0.22300
C1163       C  0.92586492  0.52330824  0.11241391    -0.22300
C1164       C  0.85865616  0.62181726  0.22670515    -0.17700
C1165       C  0.85272303  0.54171819  0.14787584    -0.17700
C1166       C  0.95014328  0.57588885  0.10459365    -0.17700
C1167       C  0.95602097  0.65621858  0.19019585    -0.17700
H1168       H  0.79434677  0.61232612  0.20470401     0.15200
H1169       H  0.79092894  0.56765849  0.16092775     0.15200
H1170       H  0.98509585  0.67731324  0.13032748     0.15200
H1171       H  0.98204591  0.63390838  0.08420143     0.15200
H1172       H  0.89693867  0.64194600  0.27890719     0.13500
H1173       H  0.95301832  0.66099390  0.25862013     0.13500
H1174       H  0.88590014  0.49128050  0.12066515     0.13500
H1175       H  0.94140388  0.50945549  0.09773347     0.13500
H1176       H  0.88671158  0.57275585  0.19460310     0.26800
H1177       H  0.94167819  0.59588258  0.16758063     0.26800
N1178       N  0.65655032  0.85747737  0.09113692    -0.36000
N1179       N  0.60326938  0.89795822  0.07676296    -0.56500
N1180       N  0.63073170  0.94654217  0.11789832    -0.36000
N1181       N  0.68721359  0.90515532  0.12823852    -0.56500
C1182       C  0.64127318  0.84070819  0.06871026     0.27600
C1183       C  0.68546980  0.84461452  0.09506790     0.27600
C1184       C  0.60864671  0.96327550  0.10109845     0.27600
C1185       C  0.65215962  0.96650009  0.13169529     0.27600
C1186       C  0.59062519  0.86985846  0.06907804     0.36200
C1187       C  0.57850307  0.91766471  0.07975538     0.36200
C1188       C  0.70365303  0.87966870  0.13790701     0.36200
C1189       C  0.69094328  0.92648970  0.15162712     0.36200
C1190       C  0.66090138  0.81715771  0.05756372    -0.21300
C1191       C  0.68907885  0.81968390  0.07434677    -0.21300
C1192       C  0.61596780  0.99475718  0.10479523    -0.21300
C1193       C  0.64303896  0.99679257  0.12434753    -0.21300
C1194       C  0.55777771  0.87177859  0.06667723    -0.22300
C1195       C  0.55010697  0.90224297  0.07304565    -0.22300
C1196       C  0.71817241  0.88506022  0.16708139    -0.22300
C1197       C  0.71044476  0.91468437  0.17559667    -0.22300
C1198       C  0.60851669  0.84278284  0.06297625    -0.17700
C1199       C  0.70544387  0.85128278  0.12097610    -0.17700
C1200       C  0.67894219  0.95724879  0.15115553    -0.17700
C1201       C  0.58169274  0.95013932  0.08400589    -0.17700
H1202       H  0.65476687  0.79892213  0.04066742     0.15200
H1203       H  0.70901631  0.80379067  0.07310947     0.15200
H1204       H  0.60291062  0.01423340  0.09490203     0.15200
H1205       H  0.65484516  0.01810747  0.13193914     0.15200
H1206       H  0.54115380  0.85332875  0.06039047     0.13500
H1207       H  0.52637515  0.91198830  0.07262922     0.13500
H1208       H  0.73255661  0.86934634  0.18117458     0.13500
H1209       H  0.71829991  0.92615866  0.19725394     0.13500
H1210       H  0.64607170  0.87383785  0.10598083     0.26800
H1211       H  0.63076571  0.92245971  0.12092062     0.26800
O1212       O  0.70796288  0.48704803  0.67835225    -0.77900
C1213       C  0.76525692  0.57152694  0.68347991     0.83200
O1214       O  0.79855833  0.44424212  0.74472602    -0.79000
O1215       O  0.79151860  0.54927101  0.78947414    -0.80500
O1216       O  0.67192468  0.54271741  0.77132393    -0.80300
O1217       O  0.67174273  0.48509587  0.71683243    -0.78900
Zn1218     Zn  0.75023305  0.50062062  0.69973283     1.55700
O1219       O  0.71230104  0.57615635  0.77042379    -0.80300
Cd1220     Cd  0.69680585  0.50022523  0.75771080     1.59700
Cd1221     Cd  0.77244690  0.47579092  0.77349200     1.59600
O1222       O  0.69852005  0.46542217  0.79512702    -0.80300
O1223       O  0.74327198  0.50653533  0.74603480    -1.90800
Cd1224     Cd  0.75297338  0.55173110  0.75504371     1.59900
O1225       O  0.74730449  0.44817315  0.80677641    -0.80200
O1226       O  0.76389128  0.57832319  0.71317130    -0.78900
C1227       C  0.79973477  0.44287957  0.71443572     0.83600
C1228       C  0.67946081  0.48206091  0.68757677     0.83300
O1229       O  0.76138026  0.54286839  0.67475875    -0.77800
C1230       C  0.68266941  0.57066688  0.77482197     0.84100
O1231       O  0.78407617  0.46291510  0.69719814    -0.77900
C1232       C  0.71750090  0.44822071  0.81215421     0.84200
C1233       C  0.80993314  0.52976967  0.80426630     0.84600
O1234       O  0.80609219  0.50034500  0.80135023    -0.80400
O1235       O  0.06845940  0.04074524  0.47729105    -0.77900
C1236       C  0.05313211  0.98655120  0.56606988     0.83200
O1237       O  0.99356754  0.94882887  0.44342531    -0.79000
O1238       O  0.94200285  0.97406442  0.54497223    -0.80500
O1239       O  0.97720747  0.08456237  0.52747684    -0.80300
O1240       O  0.03493972  0.08003536  0.47038899    -0.78900
Zn1241     Zn  0.04114638  0.00283234  0.49382634     1.55700
O1242       O  0.97288154  0.04978650  0.56667277    -0.80300
Cd1243     Cd  0.99111254  0.05783697  0.48645591     1.59700
Cd1244     Cd  0.96593514  0.98163972  0.47011677     1.59600
O1245       O  0.95287267  0.05685918  0.45141292    -0.80300
O1246       O  0.99546523  0.01178531  0.49868833    -1.90800
Cd1247     Cd  0.98367514  0.00568649  0.54527343     1.59900
O1248       O  0.93567287  0.00839294  0.43979637    -0.80200
O1249       O  0.02371558  0.99042196  0.57312915    -0.78900
C1250       C  0.02393765  0.94647241  0.44387697     0.83600
C1251       C  0.06344322  0.06922834  0.46929355     0.83300
O1252       O  0.06237276  0.99041770  0.53732961    -0.77800
C1253       C  0.97129566  0.07807373  0.55667552     0.84100
O1254       O  0.04069625  0.96564917  0.46101979    -0.77900
C1255       C  0.93286707  0.03804684  0.43731292     0.84200
C1256       C  0.92411426  0.95743652  0.52583494     0.84600
O1257       O  0.93106421  0.95554690  0.49635253    -0.80400
C1258       C  0.51139157  0.00562314  0.78832582     0.80900
N1259       N  0.50571652  0.97896500  0.77187301    -0.77500
C1260       C  0.48032665  0.97673446  0.75163012     0.83300
N1261       N  0.46116442  0.00183533  0.74731360    -0.77400
C1262       C  0.46656465  0.02829114  0.76437428     0.83400
N1263       N  0.49163211  0.03012643  0.78429925    -0.79100
C1264       C  0.73534115  0.04544993  0.53263282     0.80900
N1265       N  0.72283151  0.02921830  0.55739224    -0.77500
C1266       C  0.69830619  0.00920204  0.55249932     0.83300
N1267       N  0.68623439  0.00518567  0.52290498    -0.77400
C1268       C  0.69843881  0.02068701  0.49796632     0.83400
N1269       N  0.72293683  0.04109459  0.50301672    -0.79100
C1270       C  0.51036301  0.27789345  0.50428954     0.80900
N1271       N  0.51505910  0.25658381  0.48118967    -0.77500
C1272       C  0.50294195  0.22729287  0.48344938     0.83300
N1273       N  0.48617142  0.21938402  0.50966171    -0.77400
C1274       C  0.48096799  0.24087700  0.53298054     0.83400
N1275       N  0.49330552  0.26991643  0.53018947    -0.79100
N1276       N  0.58688103  0.09266959  0.38617410    -0.36000
N1277       N  0.62825462  0.06840951  0.33711234    -0.56500
N1278       N  0.60887784  0.11553735  0.29078716    -0.36000
N1279       N  0.57088599  0.14233762  0.34191551    -0.56500
C1280       C  0.60755329  0.07566783  0.40329362     0.27600
C1281       C  0.57564988  0.11493358  0.40566229     0.27600
C1282       C  0.63582063  0.10399618  0.27710083     0.27600
C1283       C  0.60204997  0.14445679  0.27879092     0.27600
C1284       C  0.62757644  0.04513102  0.35862998     0.36200
C1285       C  0.63886127  0.05560757  0.30996607     0.36200
C1286       C  0.54828925  0.14434668  0.36442105     0.36200
C1287       C  0.55778763  0.15486293  0.31565996     0.36200
C1288       C  0.60885908  0.08666157  0.43438911    -0.21300
C1289       C  0.58841070  0.11163357  0.43589274    -0.21300
C1290       C  0.64586660  0.12574919  0.25485595    -0.21300
C1291       C  0.62469769  0.15109200  0.25589131    -0.21300
C1292       C  0.63741990  0.01734020  0.34557917    -0.22300
C1293       C  0.64430304  0.02369219  0.31466682    -0.22300
C1294       C  0.52094819  0.15809717  0.35287681    -0.22300
C1295       C  0.52663194  0.16381680  0.32159259    -0.22300
C1296       C  0.62476028  0.05042752  0.39111684    -0.17700
C1297       C  0.55381745  0.13756574  0.39625276    -0.17700
C1298       C  0.57550344  0.16372502  0.28882643    -0.17700
C1299       C  0.64984050  0.07377562  0.28412986    -0.17700
H1300       H  0.62321470  0.07787272  0.45384740     0.15200
H1301       H  0.58379502  0.12592122  0.45662349     0.15200
H1302       H  0.66631038  0.12367976  0.23951995     0.15200
H1303       H  0.62612158  0.17205824  0.24166947     0.15200
H1304       H  0.64064464  0.99520064  0.35754050     0.13500
H1305       H  0.65339771  0.00631618  0.29855653     0.13500
H1306       H  0.49945890  0.16354541  0.36576705     0.13500
H1307       H  0.51042008  0.17511304  0.30534850     0.13500
H1308       H  0.58035543  0.08893603  0.36251961     0.26800
H1309       H  0.59503082  0.10369861  0.30724068     0.26800
N1310       N  0.38787269  0.15829483  0.66951413    -0.36000
N1311       N  0.34822403  0.17812893  0.61676760    -0.56500
N1312       N  0.29999507  0.12973353  0.63075301    -0.36000
N1313       N  0.33964967  0.11338034  0.68861575    -0.56500
C1314       C  0.40465999  0.18308311  0.65972931     0.27600
C1315       C  0.39842754  0.15089278  0.69879762     0.27600
C1316       C  0.28298690  0.14987609  0.61188142     0.27600
C1317       C  0.28008698  0.11202934  0.64931350     0.27600
C1318       C  0.37703713  0.18923523  0.60794964     0.36200
C1319       C  0.32998658  0.17814969  0.59015560     0.36200
C1320       C  0.36760924  0.10286640  0.70012981     0.36200
C1321       C  0.32392944  0.08784432  0.67810035     0.36200
C1322       C  0.42609797  0.19225325  0.68324182    -0.21300
C1323       C  0.42186737  0.17193506  0.70834274    -0.21300
C1324       C  0.25098114  0.14429110  0.61806811    -0.21300
C1325       C  0.24916187  0.12076919  0.64147772    -0.21300
C1326       C  0.37686361  0.19657036  0.57587578    -0.22300
C1327       C  0.34713814  0.18974068  0.56475443    -0.22300
C1328       C  0.36970587  0.07067118  0.69703338    -0.22300
C1329       C  0.34202571  0.06116673  0.68257939    -0.22300
C1330       C  0.40323841  0.19443616  0.62861433    -0.17700
C1331       C  0.39115882  0.12234643  0.71343185    -0.17700
C1332       C  0.29117268  0.08832744  0.67193809    -0.17700
C1333       C  0.29699658  0.17193819  0.58925727    -0.17700
H1334       H  0.44363672  0.21079460  0.68190606     0.15200
H1335       H  0.43586076  0.17132721  0.73005409     0.15200
H1336       H  0.23097116  0.15594921  0.60700476     0.15200
H1337       H  0.22751292  0.11128298  0.65137891     0.15200
H1338       H  0.39595192  0.20623195  0.56183169     0.13500
H1339       H  0.33892595  0.19327105  0.54068191     0.13500
H1340       H  0.38921409  0.05570828  0.70411054     0.13500
H1341       H  0.33523582  0.03726793  0.67722129     0.13500
H1342       H  0.37268624  0.14495401  0.65529269     0.26800
H1343       H  0.32466148  0.12749249  0.63048476     0.26800
C1344       C  0.72821621  0.23401218  0.76579257     0.80900
N1345       N  0.75491286  0.23453280  0.74811658    -0.77500
C1346       C  0.75718613  0.25351564  0.72269990     0.83300
N1347       N  0.73242775  0.27159352  0.71433883    -0.77400
C1348       C  0.70525465  0.27106976  0.73121458     0.83400
N1349       N  0.70306440  0.25223839  0.75697992    -0.79100
N1350       N  0.61069942  0.36662994  0.61643826    -0.36000
N1351       N  0.63358299  0.41170552  0.66308149    -0.56500
N1352       N  0.63053351  0.46133324  0.61405358    -0.36000
N1353       N  0.60449775  0.41516738  0.57134873    -0.56500
C1354       C  0.60502975  0.35151121  0.64386012     0.27600
C1355       C  0.59256954  0.35304894  0.59367138     0.27600
C1356       C  0.63916167  0.47730193  0.64059748     0.27600
C1357       C  0.61150724  0.47956186  0.59527303     0.27600
C1358       C  0.64052244  0.38390867  0.67681999     0.36200
C1359       C  0.65658282  0.43176329  0.67299200     0.36200
C1360       C  0.60429607  0.39066497  0.55160568     0.36200
C1361       C  0.60790597  0.44057801  0.55337020     0.36200
C1362       C  0.58340515  0.32747115  0.63851074    -0.21300
C1363       C  0.57539371  0.32848344  0.60664974    -0.21300
C1364       C  0.62666306  0.50721734  0.63839924    -0.21300
C1365       C  0.60847247  0.50836639  0.61025630    -0.21300
C1366       C  0.66773409  0.38644542  0.69549858    -0.22300
C1367       C  0.67777226  0.41666348  0.69324754    -0.22300
C1368       C  0.60758255  0.40033850  0.52037940    -0.22300
C1369       C  0.61000888  0.43233287  0.52154421    -0.22300
C1370       C  0.62314779  0.35596977  0.67179329    -0.17700
C1371       C  0.59257332  0.36190451  0.56139321    -0.17700
C1372       C  0.59857848  0.46963438  0.56490682    -0.17700
C1373       C  0.65758527  0.46408211  0.66608810    -0.17700
H1374       H  0.57521537  0.31042077  0.65556733     0.15200
H1375       H  0.55935582  0.31258492  0.59435561     0.15200
H1376       H  0.62933839  0.52581973  0.65572629     0.15200
H1377       H  0.59530835  0.52831680  0.60159965     0.15200
H1378       H  0.67978675  0.36836411  0.70878413     0.13500
H1379       H  0.69853697  0.42633080  0.70516363     0.13500
H1380       H  0.60573099  0.38616332  0.49907210     0.13500
H1381       H  0.61031221  0.44794721  0.50139231     0.13500
H1382       H  0.62788942  0.38382440  0.61291002     0.26800
H1383       H  0.63830203  0.43877286  0.60927449     0.26800
N1384       N  0.58110182  0.89917249  0.63822024    -0.36000
N1385       N  0.63122951  0.86134175  0.60898850    -0.56500
N1386       N  0.59725223  0.80364772  0.62319653    -0.36000
N1387       N  0.55016572  0.84331669  0.65453121    -0.56500
C1388       C  0.60585172  0.91910921  0.63909785     0.27600
C1389       C  0.56008255  0.90915771  0.65999519     0.27600
C1390       C  0.62548718  0.79280156  0.61188036     0.27600
C1391       C  0.58565806  0.78404830  0.64618498     0.27600
C1392       C  0.63931830  0.89086283  0.60064801     0.36200
C1393       C  0.64473942  0.84226081  0.58722899     0.36200
C1394       C  0.52589159  0.86326674  0.65788704     0.36200
C1395       C  0.53740001  0.81465970  0.65407790     0.36200
C1396       C  0.60050724  0.94246211  0.66135039    -0.21300
C1397       C  0.57131660  0.93616232  0.67461925    -0.21300
C1398       C  0.63168536  0.76471073  0.62721661    -0.21300
C1399       C  0.60712301  0.75961931  0.64926288    -0.21300
C1400       C  0.65813175  0.89058751  0.57379835    -0.22300
C1401       C  0.66147561  0.85994513  0.56520800    -0.22300
C1402       C  0.49727068  0.84751250  0.65966135    -0.22300
C1403       C  0.50448373  0.81642143  0.65666731    -0.22300
C1404       C  0.63132473  0.91805459  0.61793127    -0.17700
C1405       C  0.53083107  0.89441993  0.66592149    -0.17700
C1406       C  0.55571791  0.78882638  0.66275481    -0.17700
C1407       C  0.64514142  0.80913689  0.58888175    -0.17700
H1408       H  0.61577837  0.96220430  0.66693182     0.15200
H1409       H  0.55963801  0.94990234  0.69270714     0.15200
H1410       H  0.65232682  0.75005266  0.62386749     0.15200
H1411       H  0.60515402  0.73999041  0.66527206     0.15200
H1412       H  0.66845602  0.91038949  0.56163821     0.13500
H1413       H  0.67537982  0.85174937  0.54532939     0.13500
H1414       H  0.47429285  0.85742320  0.66493722     0.13500
H1415       H  0.48811346  0.79709597  0.65969752     0.13500
H1416       H  0.57791371  0.88077453  0.62220212     0.26800
H1417       H  0.58618387  0.82373108  0.61476410     0.26800
N1418       N  0.85531237  0.16806206  0.59939540    -0.36000
N1419       N  0.89775882  0.12173830  0.57461342    -0.56500
N1420       N  0.94733860  0.14017421  0.62034906    -0.36000
N1421       N  0.90346636  0.19062575  0.64219256    -0.56500
C1422       C  0.83819327  0.15722222  0.57465173     0.27600
C1423       C  0.84319549  0.19601586  0.60746392     0.27600
C1424       C  0.96506467  0.12369451  0.59901198     0.27600
C1425       C  0.96664303  0.15929153  0.63814490     0.27600
C1426       C  0.86953337  0.11006146  0.56412586     0.36200
C1427       C  0.91933986  0.09900822  0.56977251     0.36200
C1428       C  0.87655217  0.20213512  0.65480996     0.36200
C1429       C  0.92300047  0.18498434  0.66693527     0.36200
C1430       C  0.81484813  0.17848966  0.56636129    -0.21300
C1431       C  0.81832863  0.20346538  0.58695473    -0.21300
C1432       C  0.99676919  0.13184839  0.60408178    -0.21300
C1433       C  0.99773930  0.15433026  0.62850737    -0.21300
C1434       C  0.87318867  0.08016783  0.55228152    -0.22300
C1435       C  0.90482161  0.07362477  0.55511050    -0.22300
C1436       C  0.87901353  0.20402920  0.68764780    -0.22300
C1437       C  0.90868374  0.19336004  0.69534454    -0.22300
C1438       C  0.84082887  0.12678272  0.56298541    -0.17700
C1439       C  0.84993625  0.21087757  0.63661238    -0.17700
C1440       C  0.95552639  0.17969465  0.66319955    -0.17700
C1441       C  0.95239203  0.10133993  0.57612101    -0.17700
H1442       H  0.79657766  0.17567893  0.54827001     0.15200
H1443       H  0.80287008  0.22359510  0.58831957     0.15200
H1444       H  0.01706327  0.12274715  0.59141718     0.15200
H1445       H  0.01888929  0.16548514  0.63815625     0.15200
H1446       H  0.85533181  0.06526877  0.54127687     0.13500
H1447       H  0.91629604  0.05286451  0.54651142     0.13500
H1448       H  0.86138967  0.21218709  0.70432743     0.13500
H1449       H  0.91892988  0.19260645  0.71902337     0.13500
H1450       H  0.87155249  0.15501264  0.61247824     0.26800
H1451       H  0.92291840  0.13794239  0.62348102     0.26800
N1452       N  0.66847329  0.08228390  0.85330684    -0.36000
N1453       N  0.68299997  0.13018849  0.89992353    -0.56500
N1454       N  0.64152635  0.10612547  0.94994785    -0.36000
N1455       N  0.62528117  0.05945972  0.90359441    -0.56500
C1456       C  0.67820055  0.10606497  0.83489661     0.27600
C1457       C  0.64616124  0.06661120  0.83665906     0.27600
C1458       C  0.64814554  0.13568136  0.96046276     0.27600
C1459       C  0.61271246  0.09633783  0.96118891     0.27600
C1460       C  0.70562082  0.13337875  0.87763190     0.36200
C1461       C  0.69550960  0.14249477  0.92667613     0.36200
C1462       C  0.62721815  0.03625957  0.88185761     0.36200
C1463       C  0.61123472  0.04721814  0.92952013     0.36200
C1464       C  0.66354285  0.10439392  0.80531292    -0.21300
C1465       C  0.64294890  0.07926267  0.80647912    -0.21300
C1466       C  0.62331129  0.14478581  0.97997876    -0.21300
C1467       C  0.60109329  0.12008029  0.98046944    -0.21300
C1468       C  0.73242987  0.14788122  0.88986972    -0.22300
C1469       C  0.72671606  0.15217898  0.92143568    -0.22300
C1470       C  0.61470416  0.00902146  0.89386814    -0.22300
C1471       C  0.60482345  0.01560183  0.92392877    -0.22300
C1472       C  0.69910808  0.12944473  0.84540432    -0.17700
C1473       C  0.62779998  0.04240566  0.84925929    -0.17700
C1474       C  0.59840738  0.06603288  0.95432014    -0.17700
C1475       C  0.67638569  0.15320369  0.95179639    -0.17700
H1476       H  0.66647618  0.12023515  0.78554508     0.15200
H1477       H  0.62678343  0.07179685  0.78774424     0.15200
H1478       H  0.62117373  0.16693738  0.99225050     0.15200
H1479       H  0.57888370  0.11981872  0.99331452     0.15200
H1480       H  0.75329790  0.15553706  0.87710270     0.13500
H1481       H  0.74234560  0.16429681  0.93795566     0.13500
H1482       H  0.60958483  0.98776680  0.88077321     0.13500
H1483       H  0.59236176  0.99878256  0.93823137     0.13500
H1484       H  0.67595369  0.07745516  0.87648207     0.26800
H1485       H  0.65689797  0.09285000  0.93615918     0.26800
C1486       C  0.98191254  0.74161886  0.52515159     0.80900
N1487       N  0.99750049  0.76935873  0.52464810    -0.77500
C1488       C  0.02351029  0.77340924  0.50622648     0.83300
N1489       N  0.03442059  0.74920894  0.48885235    -0.77400
C1490       C  0.01933468  0.72120659  0.48903399     0.83400
N1491       N  0.99326567  0.71731485  0.50747343    -0.79100
N1492       N  0.15019164  0.63099347  0.39992122    -0.36000
N1493       N  0.09662368  0.65280944  0.35670606    -0.56500
N1494       N  0.13117143  0.63833371  0.30025129    -0.36000
N1495       N  0.17971646  0.61164656  0.34408557    -0.56500
C1496       C  0.12417077  0.62802108  0.41793773     0.27600
C1497       C  0.17205162  0.61065145  0.41076966     0.27600
C1498       C  0.10245942  0.64776366  0.28835011     0.27600
C1499       C  0.14310181  0.61410631  0.28274684     0.27600
C1500       C  0.09309518  0.66459165  0.38630921     0.36200
C1501       C  0.08736452  0.67577988  0.33663344     0.36200
C1502       C  0.20460803  0.61459613  0.36429038     0.36200
C1503       C  0.19174434  0.61165731  0.31473123     0.36200
C1504       C  0.12946394  0.60584497  0.44131389    -0.21300
C1505       C  0.16002351  0.59463661  0.43666601    -0.21300
C1506       C  0.09617497  0.62968648  0.26145468    -0.21300
C1507       C  0.12140789  0.60818536  0.25827465    -0.21300
C1508       C  0.08207672  0.69494957  0.38525391    -0.22300
C1509       C  0.07939427  0.70222536  0.35374402    -0.22300
C1510       C  0.23281493  0.61659130  0.34791802    -0.22300
C1511       C  0.22455216  0.61493642  0.31637765    -0.22300
C1512       C  0.09749108  0.64723621  0.41427986    -0.17700
C1513       C  0.20182194  0.60665526  0.39629838    -0.17700
C1514       C  0.17404087  0.59999501  0.28883269    -0.17700
C1515       C  0.08292031  0.67154114  0.30343014    -0.17700
H1516       H  0.11311117  0.59863338  0.45965121     0.15200
H1517       H  0.17176429  0.57663908  0.45038506     0.15200
H1518       H  0.07523272  0.63100625  0.24637645     0.15200
H1519       H  0.12369506  0.59071410  0.23978050     0.15200
H1520       H  0.07718220  0.71033105  0.40510283     0.13500
H1521       H  0.07268288  0.72450397  0.34425508     0.13500
H1522       H  0.25669236  0.61683307  0.35779263     0.13500
H1523       H  0.24091687  0.61458924  0.29698112     0.13500
H1524       H  0.15322739  0.64707784  0.38157687     0.26800
H1525       H  0.14252964  0.64887575  0.31965065     0.26800
C1526       C  0.23753982  0.69377072  0.69680185     0.80900
N1527       N  0.23122351  0.68809436  0.72747037    -0.77500
C1528       C  0.21577169  0.70897073  0.74549462     0.83300
N1529       N  0.20613505  0.73647578  0.73279153    -0.77400
C1530       C  0.21320127  0.74282858  0.70191620     0.83400
N1531       N  0.22927696  0.72161500  0.68410340    -0.79100
C1532       C  0.28963030  0.48440395  0.50028532     0.80900
N1533       N  0.28991896  0.50592609  0.47650238    -0.77500
C1534       C  0.26544752  0.50723522  0.45517120     0.83300
N1535       N  0.24010349  0.48794546  0.45851373    -0.77400
C1536       C  0.23908843  0.46716761  0.48244473     0.83400
N1537       N  0.26359752  0.46575229  0.50356195    -0.79100
N1538       N  0.35676918  0.56650448  0.63843300    -0.36000
N1539       N  0.39324125  0.62487985  0.66371386    -0.56500
N1540       N  0.45194350  0.60469495  0.64081349    -0.36000
N1541       N  0.41374331  0.54998522  0.61259263    -0.56500
C1542       C  0.33560046  0.58977883  0.63851516     0.27600
C1543       C  0.34755850  0.54651449  0.61519307     0.27600
C1544       C  0.45931059  0.63449784  0.65079567     0.27600
C1545       C  0.46781556  0.59748619  0.61340548     0.27600
C1546       C  0.36403327  0.62400683  0.67661944     0.36200
C1547       C  0.41213990  0.64090981  0.68437149     0.36200
C1548       C  0.39856267  0.52219269  0.61042293     0.36200
C1549       C  0.44474310  0.54454696  0.60862637     0.36200
C1550       C  0.31191712  0.58430709  0.61598071    -0.21300
C1551       C  0.31958741  0.55682651  0.60100969    -0.21300
C1552       C  0.48193970  0.64604872  0.62991858    -0.21300
C1553       C  0.48677103  0.62317458  0.60620682    -0.21300
C1554       C  0.36399895  0.63935691  0.70558736    -0.22300
C1555       C  0.39469229  0.64928451  0.71103460    -0.22300
C1556       C  0.41999540  0.49844526  0.60523637    -0.22300
C1557       C  0.44951705  0.51263270  0.60452332    -0.22300
C1558       C  0.33668019  0.61488220  0.65962817    -0.17700
C1559       C  0.36555670  0.52062723  0.60555366    -0.17700
C1560       C  0.46449603  0.56791513  0.59612154    -0.17700
C1561       C  0.44344640  0.65106240  0.67678897    -0.17700
H1562       H  0.29164185  0.59892085  0.61049584     0.15200
H1563       H  0.30668735  0.54640742  0.58125496     0.15200
H1564       H  0.49260934  0.66910116  0.63062698     0.15200
H1565       H  0.50243390  0.62532174  0.58604003     0.15200
H1566       H  0.34381209  0.64328005  0.72091144     0.13500
H1567       H  0.40272127  0.66161515  0.73211770     0.13500
H1568       H  0.41455715  0.47417913  0.60025136     0.13500
H1569       H  0.47171843  0.50158265  0.59832546     0.13500
H1570       H  0.37631380  0.56445950  0.65379467     0.26800
H1571       H  0.43633639  0.58958678  0.65232790     0.26800
C1572       C  0.05495786  0.54509881  0.73220232     0.80900
N1573       N  0.02720386  0.56112775  0.73053631    -0.77500
C1574       C  0.00603534  0.55465644  0.70714676     0.83300
N1575       N  0.01280101  0.53224277  0.68560340    -0.77400
C1576       C  0.04031154  0.51626782  0.68675159     0.83400
N1577       N  0.06147968  0.52236453  0.71050954    -0.79100
N1578       N  0.09659859  0.39333671  0.56983302    -0.36000
N1579       N  0.07174868  0.35594428  0.62113655    -0.56500
N1580       N  0.12295419  0.30939386  0.61112577    -0.36000
N1581       N  0.14408452  0.34761428  0.55604865    -0.56500
C1582       C  0.07003017  0.40907073  0.57686866     0.27600
C1583       C  0.10682418  0.40386796  0.54160904     0.27600
C1584       C  0.10222948  0.29322763  0.62989837     0.27600
C1585       C  0.14179484  0.28909502  0.59459665     0.27600
C1586       C  0.06023886  0.38449507  0.62870012     0.36200
C1587       C  0.07140864  0.33941407  0.64839204     0.36200
C1588       C  0.15603811  0.37329329  0.54187037     0.36200
C1589       C  0.16937079  0.32974798  0.56332494     0.36200
C1590       C  0.06266848  0.42964688  0.55255528    -0.21300
C1591       C  0.08593548  0.42607377  0.52988057    -0.21300
C1592       C  0.10853685  0.26160601  0.62576573    -0.21300
C1593       C  0.13325689  0.25901254  0.60355537    -0.21300
C1594       C  0.05220583  0.38584920  0.66054391    -0.22300
C1595       C  0.05888785  0.35723312  0.67289652    -0.22300
C1596       C  0.18891710  0.37152700  0.53981995    -0.22300
C1597       C  0.19736924  0.34386189  0.55333035    -0.22300
C1598       C  0.05707307  0.40962373  0.60736541    -0.17700
C1599       C  0.13741777  0.39803199  0.53014494    -0.17700
C1600       C  0.16678586  0.29857598  0.57294683    -0.17700
C1601       C  0.07903447  0.30750060  0.65086441    -0.17700
H1602       H  0.04373927  0.44673166  0.55224701     0.15200
H1603       H  0.08863108  0.43991310  0.50858103     0.15200
H1604       H  0.09660945  0.24240686  0.63744141     0.15200
H1605       H  0.14379613  0.23749232  0.59519635     0.15200
H1606       H  0.04248421  0.40535232  0.67364961     0.13500
H1607       H  0.05503209  0.35039091  0.69726485     0.13500
H1608       H  0.20524040  0.38835521  0.52978244     0.13500
H1609       H  0.22136630  0.33487747  0.55505004     0.13500
H1610       H  0.10938871  0.37959108  0.58566876     0.26800
H1611       H  0.12490775  0.33361989  0.61038121     0.26800
N1612       N  0.87766204  0.66648075  0.65112124    -0.36000
N1613       N  0.83535439  0.61608827  0.66742104    -0.56500
N1614       N  0.78608931  0.64112536  0.62433699    -0.36000
N1615       N  0.83052046  0.69426843  0.61095642    -0.56500
C1616       C  0.89382770  0.65333128  0.67518464     0.27600
C1617       C  0.89161565  0.69411917  0.64522537     0.27600
C1618       C  0.76883892  0.62047545  0.64256842     0.27600
C1619       C  0.76627267  0.66190696  0.60917867     0.27600
C1620       C  0.86351685  0.60402823  0.67670342     0.36200
C1621       C  0.81519594  0.59165890  0.66524999     0.36200
C1622       C  0.85680526  0.71007849  0.60122782     0.36200
C1623       C  0.80831744  0.69864843  0.58805164     0.36200
C1624       C  0.91794400  0.67328001  0.68551788    -0.21300
C1625       C  0.91657829  0.69923089  0.66630902    -0.21300
C1626       C  0.73695498  0.62806957  0.63830560    -0.21300
C1627       C  0.73533950  0.65363287  0.61730369    -0.21300
C1628       C  0.86105924  0.57214101  0.68148829    -0.22300
C1629       C  0.83057084  0.56418168  0.67385950    -0.22300
C1630       C  0.85098068  0.72507761  0.57281575    -0.22300
C1631       C  0.82042554  0.71828756  0.56478277    -0.22300
C1632       C  0.89106224  0.62167895  0.68280407    -0.17700
C1633       C  0.88638393  0.71080892  0.61724916    -0.17700
C1634       C  0.77640858  0.68761692  0.58841347    -0.17700
C1635       C  0.78214104  0.59472150  0.66150798    -0.17700
H1636       H  0.93599153  0.66867342  0.70336808     0.15200
H1637       H  0.93330945  0.71853502  0.66625306     0.15200
H1638       H  0.71686455  0.61626521  0.64891315     0.15200
H1639       H  0.71378971  0.66504888  0.60931292     0.15200
H1640       H  0.87921383  0.55632069  0.69008221     0.13500
H1641       H  0.82073032  0.54085892  0.67546850     0.13500
H1642       H  0.86683936  0.73931253  0.55884522     0.13500
H1643       H  0.80851226  0.72680179  0.54370131     0.13500
H1644       H  0.86132456  0.65512741  0.63641311     0.26800
H1645       H  0.81062021  0.64064894  0.62151024     0.26800
N1646       N  0.14500229  0.87292693  0.60026501    -0.36000
N1647       N  0.09809639  0.91728347  0.57837601    -0.56500
N1648       N  0.11447256  0.95984442  0.63147250    -0.36000
N1649       N  0.16551897  0.91351333  0.65047219    -0.56500
C1650       C  0.13697155  0.86064080  0.57186233     0.27600
C1651       C  0.17101489  0.85773598  0.61076781     0.27600
C1652       C  0.09792439  0.97878298  0.61109972     0.27600
C1653       C  0.13489861  0.97717438  0.65003377     0.27600
C1654       C  0.08749423  0.89043211  0.56506310     0.36200
C1655       C  0.07241250  0.93584890  0.58069375     0.36200
C1656       C  0.17331410  0.88501975  0.66187343     0.36200
C1657       C  0.15848173  0.93125739  0.67595746     0.36200
C1658       C  0.15871559  0.83793582  0.56338111    -0.21300
C1659       C  0.18000498  0.83569373  0.58833046    -0.21300
C1660       C  0.10745448  0.00931494  0.61736534    -0.21300
C1661       C  0.13066566  0.00833076  0.64167216    -0.21300
C1662       C  0.05508633  0.89201731  0.55874234    -0.22300
C1663       C  0.04555979  0.92092413  0.56844963    -0.22300
C1664       C  0.17192920  0.88484761  0.69476689    -0.22300
C1665       C  0.16183837  0.91395900  0.70364288    -0.22300
C1666       C  0.10704705  0.86489489  0.55762830    -0.17700
C1667       C  0.18162706  0.85938997  0.64249026    -0.17700
C1668       C  0.15578881  0.96405366  0.67436450    -0.17700
C1669       C  0.07432818  0.96773882  0.58814458    -0.17700
H1670       H  0.15746018  0.82255469  0.54291551     0.15200
H1671       H  0.19795116  0.81790275  0.59067448     0.15200
H1672       H  0.09875070  0.03010695  0.60565725     0.15200
H1673       H  0.14280957  0.02835971  0.65187789     0.15200
H1674       H  0.03982294  0.87434957  0.54812660     0.13500
H1675       H  0.02168078  0.93010311  0.56623876     0.13500
H1676       H  0.17732866  0.86583753  0.71077550     0.13500
H1677       H  0.15824457  0.92185355  0.72783510     0.13500
H1678       H  0.13075626  0.88753843  0.61381134     0.26800
H1679       H  0.11138194  0.93575011  0.63321063     0.26800
N1680       N  0.15459773  0.60190671  0.86762705    -0.36000
N1681       N  0.17141852  0.64952029  0.91207087    -0.56500
N1682       N  0.11673820  0.63088130  0.95282699    -0.36000
N1683       N  0.10290912  0.57883899  0.90662456    -0.56500
C1684       C  0.18208551  0.61215581  0.85516662     0.27600
C1685       C  0.14694574  0.57502804  0.85281144     0.27600
C1686       C  0.13547867  0.64840142  0.97296899     0.27600
C1687       C  0.09773334  0.61093989  0.96977404     0.27600
C1688       C  0.18589642  0.66067725  0.88590979     0.36200
C1689       C  0.16723870  0.67445874  0.93106876     0.36200
C1690       C  0.09420089  0.57037422  0.87673393     0.36200
C1691       C  0.07561354  0.58443126  0.92236998     0.36200
C1692       C  0.19271824  0.59118615  0.83252628    -0.21300
C1693       C  0.17044819  0.56744843  0.83112225    -0.21300
C1694       C  0.12788999  0.63976732  0.00377004    -0.21300
C1695       C  0.10432173  0.61635678  0.00181381    -0.21300
C1696       C  0.19186387  0.69233967  0.88869330    -0.22300
C1697       C  0.17987535  0.70113227  0.91721415    -0.22300
C1698       C  0.06136720  0.57033699  0.87352648    -0.22300
C1699       C  0.04959526  0.57969132  0.90230598    -0.22300
C1700       C  0.19310832  0.64283992  0.85901556    -0.17700
C1701       C  0.11578954  0.56324306  0.85223775    -0.17700
C1702       C  0.07438885  0.58950559  0.95558718    -0.17700
C1703       C  0.15788046  0.67239151  0.96287299    -0.17700
H1704       H  0.21295943  0.59401683  0.81702650     0.15200
H1705       H  0.16995347  0.54846249  0.81404392     0.15200
H1706       H  0.13813644  0.64933570  0.02541118     0.15200
H1707       H  0.09344601  0.60484378  0.02183573     0.15200
H1708       H  0.20358982  0.70755681  0.87192015     0.13500
H1709       H  0.18097464  0.72447674  0.92697894     0.13500
H1710       H  0.04738850  0.56470974  0.85252698     0.13500
H1711       H  0.02466009  0.58274102  0.90776938     0.13500
H1712       H  0.13926353  0.61502560  0.88154530     0.26800
H1713       H  0.11616428  0.63323124  0.92820151     0.26800
C1714       C  0.74509841  0.23972343  0.25900650     0.80900
N1715       N  0.75753491  0.23285328  0.23026820    -0.77500
C1716       C  0.75497082  0.25345950  0.20603287     0.83300
N1717       N  0.74031444  0.28139072  0.21089575    -0.77400
C1718       C  0.72828928  0.28861391  0.23970262     0.83400
N1719       N  0.73122097  0.26778313  0.26380215    -0.79100
N1720       N  0.64404641  0.42476277  0.32568399    -0.36000
N1721       N  0.60131047  0.37434900  0.30661135    -0.56500
N1722       N  0.55807375  0.38908222  0.35983265    -0.36000
N1723       N  0.60025650  0.44324018  0.37489455    -0.56500
C1724       C  0.65782692  0.41586271  0.29839066     0.27600
C1725       C  0.65695067  0.45245676  0.33411447     0.27600
C1726       C  0.53975035  0.36865033  0.34239857     0.27600
C1727       C  0.53917404  0.40630375  0.37957825     0.27600
C1728       C  0.62812203  0.36612794  0.29103336     0.36200
C1729       C  0.58302287  0.34829304  0.30743570     0.36200
C1730       C  0.62668098  0.45939059  0.38378847     0.36200
C1731       C  0.58183940  0.44176540  0.40100876     0.36200
C1732       C  0.67963108  0.43831224  0.28896908    -0.21300
C1733       C  0.67899843  0.46166228  0.31166327    -0.21300
C1734       C  0.50840799  0.37243923  0.35189255    -0.21300
C1735       C  0.50804528  0.39602054  0.37515195    -0.21300
C1736       C  0.62649475  0.33506044  0.28162484    -0.22300
C1737       C  0.59805894  0.32385311  0.29186333    -0.22300
C1738       C  0.62476652  0.46840898  0.41540156    -0.22300
C1739       C  0.59645516  0.45740300  0.42622057    -0.22300
C1740       C  0.65424429  0.38607593  0.28480294    -0.17700
C1741       C  0.65246970  0.46676632  0.36376558    -0.17700
C1742       C  0.55033730  0.43020290  0.40164960    -0.17700
C1743       C  0.55154610  0.34669062  0.31889756    -0.17700
H1744       H  0.69521729  0.43727958  0.26863664     0.15200
H1745       H  0.69404004  0.48225501  0.31242712     0.15200
H1746       H  0.48791385  0.35963129  0.34298301     0.15200
H1747       H  0.48723200  0.40456940  0.38737119     0.15200
H1748       H  0.64394483  0.32156188  0.26881197     0.13500
H1749       H  0.58941411  0.30023700  0.28816895     0.13500
H1750       H  0.64185139  0.48162953  0.42941488     0.13500
H1751       H  0.58743332  0.46095422  0.44996095     0.13500
H1752       H  0.62938423  0.41097609  0.33959467     0.26800
H1753       H  0.58273042  0.39061554  0.35896161     0.26800
C1754       C  0.72221594  0.52090786  0.46273718     0.80900
N1755       N  0.73504864  0.54964523  0.46812776    -0.77500
C1756       C  0.74832448  0.55674140  0.49697592     0.83300
N1757       N  0.74907725  0.53456618  0.51993496    -0.77400
C1758       C  0.73657178  0.50577640  0.51482359     0.83400
N1759       N  0.72345113  0.49913359  0.48606135    -0.79100
C1760       C  0.92522518  0.45810233  0.26666014     0.80900
N1761       N  0.91525542  0.48373337  0.28279967    -0.77500
C1762       C  0.93303772  0.49483748  0.30754917     0.83300
N1763       N  0.96057924  0.48029634  0.31564411    -0.77400
C1764       C  0.97063772  0.45482303  0.29960835     0.83400
N1765       N  0.95283906  0.44394664  0.27517856    -0.79100
C1766       C  0.00773176  0.25960435  0.47048047     0.80900
N1767       N  0.99719357  0.28661145  0.48390418    -0.77500
C1768       C  0.96779816  0.28777727  0.49692279     0.83300
N1769       N  0.94950562  0.26185372  0.49747427    -0.77400
C1770       C  0.95960505  0.23490013  0.48449721     0.83400
N1771       N  0.98853945  0.23394069  0.47018432    -0.79100
N1772       N  0.10424359  0.34839208  0.36188788    -0.36000
N1773       N  0.15851995  0.31748948  0.38506698    -0.56500
N1774       N  0.20276709  0.36543535  0.35931931    -0.36000
N1775       N  0.14614445  0.40003496  0.33978534    -0.56500
C1776       C  0.09114841  0.32778981  0.38214967     0.27600
C1777       C  0.08416658  0.37264289  0.35973772     0.27600
C1778       C  0.22120285  0.35162397  0.38239909     0.27600
C1779       C  0.21574683  0.39341207  0.35008580     0.27600
C1780       C  0.13731432  0.29385939  0.38583258     0.36200
C1781       C  0.18739861  0.30453854  0.38690653     0.36200
C1782       C  0.11768008  0.40424749  0.32507997     0.36200
C1783       C  0.16834337  0.41055132  0.31928689     0.36200
C1784       C  0.06198109  0.33884612  0.39252833    -0.21300
C1785       C  0.05755581  0.36736287  0.37823658    -0.21300
C1786       C  0.24751377  0.37095419  0.38714557    -0.21300
C1787       C  0.24428309  0.39687456  0.36678669    -0.21300
C1788       C  0.15249477  0.26542316  0.38831898    -0.22300
C1789       C  0.18450660  0.27212222  0.38835376    -0.22300
C1790       C  0.12143401  0.41715897  0.29542847    -0.22300
C1791       C  0.15347271  0.42028036  0.29138280    -0.22300
C1792       C  0.10501988  0.29913826  0.39069992    -0.17700
C1793       C  0.08818769  0.39752711  0.33873702    -0.17700
C1794       C  0.20109401  0.41491401  0.32724266    -0.17700
C1795       C  0.21385622  0.32179344  0.39775996    -0.17700
H1796       H  0.04553082  0.32753643  0.40850989     0.15200
H1797       H  0.03697672  0.38229073  0.38074101     0.15200
H1798       H  0.26710996  0.36688317  0.40344057     0.15200
H1799       H  0.26064314  0.41639724  0.36531690     0.15200
H1800       H  0.14164889  0.24265926  0.39142433     0.13500
H1801       H  0.20345965  0.25543507  0.39217623     0.13500
H1802       H  0.10306354  0.42291141  0.27824647     0.13500
H1803       H  0.16432986  0.42903030  0.27014504     0.13500
H1804       H  0.12496581  0.34550276  0.34877242     0.26800
H1805       H  0.18191910  0.35597586  0.34981022     0.26800
N1806       N  0.85465252  0.38937211  0.58961064    -0.36000
N1807       N  0.81691425  0.40612505  0.64149248    -0.56500
N1808       N  0.86029700  0.37735473  0.68844193    -0.36000
N1809       N  0.90320159  0.36488866  0.63575237    -0.56500
C1810       C  0.83345423  0.40887491  0.57595142     0.27600
C1811       C  0.88194440  0.39152763  0.57323133     0.27600
C1812       C  0.84575528  0.39983384  0.70648190     0.27600
C1813       C  0.88716716  0.36679857  0.70339385     0.27600
C1814       C  0.79461857  0.40563121  0.61834638     0.36200
C1815       C  0.80127277  0.40702357  0.66907842     0.36200
C1816       C  0.91067512  0.35421855  0.60641340     0.36200
C1817       C  0.90954825  0.34110377  0.65599846     0.36200
C1818       C  0.84734828  0.42351318  0.55014099    -0.21300
C1819       C  0.87813745  0.41234235  0.54832635    -0.21300
C1820       C  0.86372478  0.40327748  0.73417955    -0.21300
C1821       C  0.88931020  0.38218981  0.73251312    -0.21300
C1822       C  0.76437772  0.40594377  0.63123142    -0.22300
C1823       C  0.76863501  0.40696545  0.66361782    -0.22300
C1824       C  0.92121405  0.32372091  0.60775229    -0.22300
C1825       C  0.92001656  0.31521195  0.63889524    -0.22300
C1826       C  0.80205681  0.41298476  0.58683837    -0.17700
C1827       C  0.90810050  0.37170401  0.57822873    -0.17700
C1828       C  0.90896842  0.34410117  0.68973022    -0.17700
C1829       C  0.81639173  0.41575424  0.69755769    -0.17700
H1830       H  0.83647669  0.44027783  0.53425658     0.15200
H1831       H  0.89550455  0.41827837  0.53044737     0.15200
H1832       H  0.85886072  0.41901528  0.75371543     0.15200
H1833       H  0.90785022  0.37944003  0.75026942     0.15200
H1834       H  0.74190604  0.40775019  0.61859158     0.13500
H1835       H  0.75008590  0.40945730  0.68112131     0.13500
H1836       H  0.92797836  0.30873733  0.58816588     0.13500
H1837       H  0.92532825  0.29197137  0.64732236     0.13500
H1838       H  0.85019206  0.37387385  0.60812682     0.26800
H1839       H  0.85208919  0.36882765  0.66664828     0.26800
N1840       N  0.86484479  0.35144482  0.13232799    -0.36000
N1841       N  0.88644569  0.40511130  0.09429975    -0.56500
N1842       N  0.87701154  0.37034478  0.03590722    -0.36000
N1843       N  0.85263160  0.31981721  0.07575801    -0.56500
C1844       C  0.85987627  0.37580572  0.15163467     0.27600
C1845       C  0.84472123  0.32861850  0.14134959     0.27600
C1846       C  0.88378367  0.39939890  0.02485242     0.27600
C1847       C  0.85478758  0.35602321  0.01673316     0.27600
C1848       C  0.89430734  0.41363696  0.12447520     0.36200
C1849       C  0.90568690  0.42179331  0.07492823     0.36200
C1850       C  0.85462184  0.29596452  0.09605529     0.36200
C1851       C  0.85708262  0.30809258  0.04681235     0.36200
C1852       C  0.83657549  0.36859436  0.17364257    -0.21300
C1853       C  0.82692490  0.33843214  0.16712787    -0.21300
C1854       C  0.86621139  0.40362472  0.99705312    -0.21300
C1855       C  0.84735635  0.37664958  0.99239658    -0.21300
C1856       C  0.91822015  0.43590501  0.12429401    -0.22300
C1857       C  0.92522143  0.44115149  0.09299394    -0.22300
C1858       C  0.86057991  0.26834701  0.08036003    -0.22300
C1859       C  0.86277179  0.27615284  0.04874579    -0.22300
C1860       C  0.87918189  0.40233491  0.15207942    -0.17700
C1861       C  0.84314375  0.29925031  0.12651643    -0.17700
C1862       C  0.84405631  0.32407290  0.02106886    -0.17700
C1863       C  0.90444099  0.42147856  0.04114841    -0.17700
H1864       H  0.82823231  0.38322763  0.19287316     0.15200
H1865       H  0.80922294  0.32523149  0.18001768     0.15200
H1866       H  0.86597174  0.42435172  0.98240110     0.15200
H1867       H  0.83088691  0.37245192  0.97291593     0.15200
H1868       H  0.92949609  0.44725543  0.14450272     0.13500
H1869       H  0.94269876  0.45748039  0.08439546     0.13500
H1870       H  0.86155621  0.24521738  0.09057371     0.13500
H1871       H  0.86595420  0.25998777  0.02921820     0.13500
H1872       H  0.88254693  0.34994800  0.11513455     0.26800
H1873       H  0.88810751  0.36057383  0.05574067     0.26800
N1874       N  0.88362679  0.62563888  0.42978930    -0.36000
N1875       N  0.85166814  0.68123326  0.44753980    -0.56500
N1876       N  0.87274193  0.71822726  0.39311356    -0.36000
N1877       N  0.90142418  0.66092927  0.37149359    -0.56500
C1878       C  0.86268414  0.61565976  0.45172877     0.27600
C1879       C  0.88576109  0.60284523  0.40790919     0.27600
C1880       C  0.84601063  0.73425179  0.40211519     0.27600
C1881       C  0.88197335  0.72683806  0.36337392     0.27600
C1882       C  0.85567073  0.66633504  0.47528936     0.36200
C1883       C  0.84518976  0.71092012  0.45482684     0.36200
C1884       C  0.91546744  0.63274091  0.36758141     0.36200
C1885       C  0.91681172  0.68086237  0.35185754     0.36200
C1886       C  0.85233270  0.58563807  0.44431697    -0.21300
C1887       C  0.86709760  0.57747299  0.41651013    -0.21300
C1888       C  0.83825885  0.75428324  0.37733935    -0.21300
C1889       C  0.86131420  0.75026967  0.35345614    -0.21300
C1890       C  0.85165612  0.68643174  0.50052656    -0.22300
C1891       C  0.84522037  0.71513712  0.48748504    -0.22300
C1892       C  0.93939068  0.63447508  0.34536693    -0.22300
C1893       C  0.94043826  0.66477219  0.33552032    -0.22300
C1894       C  0.85138747  0.63430546  0.47678086    -0.17700
C1895       C  0.90451051  0.60450902  0.38066529    -0.17700
C1896       C  0.90797327  0.71245714  0.34586808    -0.17700
C1897       C  0.83056606  0.73058110  0.43284009    -0.17700
H1898       H  0.83527030  0.57146816  0.45699294     0.15200
H1899       H  0.86381010  0.55572077  0.40365043     0.15200
H1900       H  0.81847387  0.77038706  0.37663454     0.15200
H1901       H  0.86178688  0.76215750  0.33080814     0.15200
H1902       H  0.85100522  0.68001654  0.52530542     0.13500
H1903       H  0.83898897  0.73627614  0.50008392     0.13500
H1904       H  0.95404936  0.61561442  0.33658935     0.13500
H1905       H  0.95610939  0.67330995  0.31721945     0.13500
H1906       H  0.89575467  0.64696503  0.42957362     0.26800
H1907       H  0.88505254  0.70219644  0.40700744     0.26800
N1908       N  0.82923924  0.14765162  0.40061194    -0.36000
N1909       N  0.87145544  0.10052377  0.42974058    -0.56500
N1910       N  0.86637679  0.05950033  0.37580687    -0.36000
N1911       N  0.81633285  0.10525648  0.35021319    -0.56500
C1912       C  0.83507481  0.16198577  0.42831732     0.27600
C1913       C  0.80864646  0.16540917  0.38401990     0.27600
C1914       C  0.88527198  0.04143112  0.39478725     0.27600
C1915       C  0.84958925  0.04128017  0.35478933     0.27600
C1916       C  0.86841352  0.12133764  0.45373431     0.36200
C1917       C  0.89047582  0.07761278  0.44080490     0.36200
C1918       C  0.81124522  0.13301524  0.33600645     0.36200
C1919       C  0.82613871  0.08588316  0.32717520     0.36200
C1920       C  0.81800640  0.18955151  0.42992306    -0.21300
C1921       C  0.80040621  0.19130747  0.40206036    -0.21300
C1922       C  0.88150855  0.01068046  0.38460230    -0.21300
C1923       C  0.85860710  0.01049629  0.36001613    -0.21300
C1924       C  0.88462178  0.11126707  0.48035765    -0.22300
C1925       C  0.89775381  0.08325346  0.47263033    -0.22300
C1926       C  0.81673941  0.13096431  0.30370213    -0.22300
C1927       C  0.82646407  0.10093624  0.29819585    -0.22300
C1928       C  0.85829186  0.15234802  0.45008604    -0.17700
C1929       C  0.80074112  0.15995895  0.35189496    -0.17700
C1930       C  0.82780899  0.05350499  0.33095743    -0.17700
C1931       C  0.90306037  0.05266792  0.42237283    -0.17700
H1932       H  0.81864735  0.20668397  0.44891851     0.15200
H1933       H  0.78480960  0.21023323  0.39523009     0.15200
H1934       H  0.89270163  0.99027963  0.39479834     0.15200
H1935       H  0.85011125  0.99004637  0.34731046     0.15200
H1936       H  0.88776124  0.12361965  0.50259642     0.13500
H1937       H  0.91166932  0.06904597  0.48868719     0.13500
H1938       H  0.81418017  0.14926356  0.28619409     0.13500
H1939       H  0.83186278  0.09042473  0.27548712     0.13500
H1940       H  0.84133604  0.12829680  0.39257549     0.26800
H1941       H  0.86522931  0.08369344  0.37671303     0.26800
O1942       O  0.02977590  0.28541233  0.66897476    -0.77900
C1943       C  0.97450183  0.20222217  0.68344540     0.83200
O1944       O  0.93368938  0.32293026  0.73861242    -0.79000
O1945       O  0.95797255  0.22361204  0.78909691    -0.80500
O1946       O  0.07066096  0.24143701  0.76252459    -0.80300
O1947       O  0.06819029  0.29167716  0.70488528    -0.78900
Zn1948     Zn  0.98946690  0.27318667  0.69494989     1.55700
O1949       O  0.03709414  0.20229495  0.77130027    -0.80300
Cd1950     Cd  0.04369436  0.28018462  0.74778086     1.59700
Cd1951     Cd  0.96636972  0.29723414  0.76796536     1.59600
O1952       O  0.04198843  0.31764288  0.78273989    -0.80300
O1953       O  0.99769625  0.26847739  0.74078001    -1.90800
Cd1954     Cd  0.99367322  0.22263510  0.75282416     1.59900
O1955       O  0.99222883  0.33091008  0.79564185    -0.80200
O1956       O  0.98105314  0.19489579  0.71224045    -0.78900
C1957       C  0.93332577  0.32411640  0.70822936     0.83600
C1958       C  0.05893440  0.29146874  0.67577320     0.83300
O1959       O  0.97569076  0.23083225  0.67456450    -0.77800
C1960       C  0.06540680  0.21358799  0.77214248     0.84100
O1961       O  0.95343246  0.30750331  0.69244070    -0.77900
C1962       C  0.02229192  0.33535830  0.79813548     0.84200
C1963       C  0.94017151  0.24160935  0.80626327     0.84600
O1964       O  0.93921334  0.27101328  0.80125247    -0.80400
C1965       C  0.03171281  0.24605270  0.99741698     0.80900
N1966       N  0.01800845  0.21979642  0.00937156    -0.77500
C1967       C  0.99753057  0.22165848  0.03388462     0.83300
N1968       N  0.99000175  0.25001907  0.04582833    -0.77400
C1969       C  0.00300457  0.27660725  0.03406653     0.83400
N1970       N  0.02442779  0.27447890  0.01000081    -0.79100
N1971       N  0.07283762  0.36802457  0.16150387    -0.36000
N1972       N  0.05274979  0.41813772  0.11939682    -0.56500
N1973       N  0.10470647  0.46006352  0.13741834    -0.36000
N1974       N  0.12767971  0.40834406  0.17719239    -0.56500
C1975       C  0.05304287  0.35349489  0.14070497     0.27600
C1976       C  0.09452000  0.34674695  0.17067197     0.27600
C1977       C  0.09346887  0.47482917  0.11066353     0.27600
C1978       C  0.13374554  0.47188962  0.14619729     0.27600
C1979       C  0.02644050  0.40054105  0.12301872     0.36200
C1980       C  0.04259555  0.44596366  0.10891890     0.36200
C1981       C  0.13384284  0.38287929  0.19540006     0.36200
C1982       C  0.14949248  0.43027873  0.18589843     0.36200
C1983       C  0.06170609  0.32243589  0.13726169    -0.21300
C1984       C  0.08778854  0.31806405  0.15658832    -0.21300
C1985       C  0.11590880  0.49728935  0.10255645    -0.21300
C1986       C  0.14082852  0.49580252  0.12507495    -0.21300
C1987       C  0.99948907  0.41681815  0.11465762    -0.22300
C1988       C  0.00962301  0.44606456  0.10628076    -0.22300
C1989       C  0.15961819  0.38847770  0.21524041    -0.22300
C1990       C  0.16976308  0.41794607  0.20897273    -0.22300
C1991       C  0.02796810  0.36822737  0.12443597    -0.17700
C1992       C  0.12054665  0.35282560  0.19087643    -0.17700
C1993       C  0.15341340  0.46065151  0.17248054    -0.17700
C1994       C  0.06296222  0.46810132  0.09513805    -0.17700
H1995       H  0.05081484  0.30487442  0.12207083     0.15200
H1996       H  0.10089399  0.29647998  0.15913298     0.15200
H1997       H  0.11437134  0.51340255  0.08287206     0.15200
H1998       H  0.16212835  0.51011464  0.12525946     0.15200
H1999       H  0.97565331  0.40745237  0.11274339     0.13500
H2000       H  0.99496070  0.46472170  0.09710964     0.13500
H2001       H  0.17105845  0.37245176  0.23152791     0.13500
H2002       H  0.19068633  0.42851625  0.21975006     0.13500
H2003       H  0.07158499  0.39121473  0.16907655     0.26800
H2004       H  0.09271667  0.44293666  0.14998168     0.26800
C2005       C  0.02625366  0.02138302  0.26413720     0.80900
N2006       N  0.02258334  0.99296531  0.25039379    -0.77500
C2007       C  0.99382950  0.98382382  0.23888973     0.83300
N2008       N  0.96872954  0.00349345  0.24095040    -0.77400
C2009       C  0.97187846  0.03154894  0.25586901     0.83400
N2010       N  0.00087391  0.04049256  0.26698696    -0.79100
C2011       C  0.21656469  0.26698517  0.23220883     0.80900
N2012       N  0.24500186  0.26760977  0.21732787    -0.77500
C2013       C  0.26970313  0.25007784  0.22776017     0.83300
N2014       N  0.26557881  0.23152022  0.25355226    -0.77400
C2015       C  0.23728931  0.23073984  0.26914694     0.83400
N2016       N  0.21286858  0.24850383  0.25813532    -0.79100
N2017       N  0.17331651  0.09288485  0.35832734    -0.36000
N2018       N  0.20885251  0.15370351  0.40668190    -0.56500
N2019       N  0.13738034  0.12158432  0.44796451    -0.36000
N2020       N  0.11594868  0.07897498  0.39800042    -0.56500
C2021       C  0.19775731  0.10673246  0.34281812     0.27600
C2022       C  0.15553137  0.07760803  0.33652194     0.27600
C2023       C  0.15270042  0.14343849  0.46632012     0.27600
C2024       C  0.11135233  0.10984293  0.46317125     0.27600
C2025       C  0.22079011  0.12956315  0.38999157     0.36200
C2026       C  0.20083153  0.14153949  0.43500257     0.36200
C2027       C  0.10788999  0.06388955  0.37067701     0.36200
C2028       C  0.09154032  0.07465518  0.41856316     0.36200
C2029       C  0.19587223  0.09987509  0.31076203    -0.21300
C2030       C  0.16957943  0.08086190  0.30681859    -0.21300
C2031       C  0.13545621  0.14673331  0.49410566    -0.21300
C2032       C  0.10989864  0.12523461  0.49240048    -0.21300
C2033       C  0.22228347  0.10280977  0.40853325    -0.22300
C2034       C  0.20882599  0.11032448  0.43708209    -0.22300
C2035       C  0.07803030  0.05026587  0.37395609    -0.22300
C2036       C  0.06794047  0.05676011  0.40393708    -0.22300
C2037       C  0.21867684  0.12877822  0.35685580    -0.17700
C2038       C  0.12590751  0.06270310  0.34202531    -0.17700
C2039       C  0.08953445  0.08603001  0.45048803    -0.17700
C2040       C  0.18264858  0.15778212  0.45711125    -0.17700
H2041       H  0.21133470  0.10835411  0.29220188     0.15200
H2042       H  0.16093529  0.07178324  0.28429027     0.15200
H2043       H  0.14127102  0.16190999  0.51397016     0.15200
H2044       H  0.09217594  0.12158510  0.51054952     0.15200
H2045       H  0.22850899  0.07949899  0.40071529     0.13500
H2046       H  0.20384569  0.09448874  0.45644025     0.13500
H2047       H  0.06435692  0.03717351  0.35653500     0.13500
H2048       H  0.04525497  0.04950333  0.41350540     0.13500
H2049       H  0.16802353  0.09534959  0.38221170     0.26800
H2050       H  0.14533382  0.11529094  0.42567039     0.26800
C2051       C  0.23802809  0.04782229  0.03751618     0.80900
N2052       N  0.23702324  0.05719683  0.00708729    -0.77500
C2053       C  0.21651627  0.04450503  0.98598907     0.83300
N2054       N  0.19573921  0.02229836  0.99588664    -0.77400
C2055       C  0.19677805  0.01225301  0.02661373     0.83400
N2056       N  0.21798822  0.02521876  0.04741273    -0.79100
N2057       N  0.36062504  0.15329409  0.11591424    -0.36000
N2058       N  0.41309415  0.18599074  0.13467927    -0.56500
N2059       N  0.45895762  0.13950082  0.10807663    -0.36000
N2060       N  0.40416968  0.10392589  0.09055636    -0.56500
C2061       C  0.34811515  0.17318198  0.13725966     0.27600
C2062       C  0.34329727  0.12717676  0.11694754     0.27600
C2063       C  0.47567445  0.15288062  0.13273089     0.27600
C2064       C  0.47250616  0.11181242  0.09924523     0.27600
C2065       C  0.39182080  0.20924886  0.13572488     0.36200
C2066       C  0.44177651  0.19920694  0.13514786     0.36200
C2067       C  0.37494598  0.09624888  0.07925305     0.36200
C2068       C  0.42541058  0.09076077  0.07052143     0.36200
C2069       C  0.32199126  0.15970139  0.15182213    -0.21300
C2070       C  0.31884979  0.13029946  0.13874351    -0.21300
C2071       C  0.50116677  0.13330693  0.13947431    -0.21300
C2072       C  0.49961777  0.10795905  0.11797419    -0.21300
C2073       C  0.40672266  0.23788513  0.13671832    -0.22300
C2074       C  0.43881361  0.23156734  0.13592844    -0.22300
C2075       C  0.37742170  0.07819473  0.05210861    -0.22300
C2076       C  0.40935915  0.07467800  0.04648877    -0.22300
C2077       C  0.36021447  0.20322710  0.14275257    -0.17700
C2078       C  0.34619260  0.10344034  0.09460726    -0.17700
C2079       C  0.45883632  0.09034443  0.07582579    -0.17700
C2080       C  0.46737495  0.18254806  0.14759520    -0.17700
H2081       H  0.30671514  0.17002014  0.16956605     0.15200
H2082       H  0.30025146  0.11350432  0.14383428     0.15200
H2083       H  0.51917457  0.13695713  0.15766201     0.15200
H2084       H  0.51570796  0.08829040  0.11733793     0.15200
H2085       H  0.39547508  0.26028505  0.14009870     0.13500
H2086       H  0.45792818  0.24829194  0.13921835     0.13500
H2087       H  0.35819260  0.06744776  0.03871580     0.13500
H2088       H  0.41947072  0.06102358  0.02739984     0.13500
H2089       H  0.37864474  0.15786496  0.09962201     0.26800
H2090       H  0.43889055  0.14910649  0.09725519     0.26800
N2091       N  0.16491517  0.18331060  0.89048955    -0.36000
N2092       N  0.17995727  0.13652384  0.84211491    -0.56500
N2093       N  0.13562475  0.15862948  0.79481834    -0.36000
N2094       N  0.11671399  0.20341314  0.84396709    -0.56500
C2095       C  0.17886216  0.16080976  0.90788389     0.27600
C2096       C  0.14383584  0.19725900  0.90960067     0.27600
C2097       C  0.14254413  0.12930127  0.78347043     0.27600
C2098       C  0.10687628  0.16841703  0.78330836     0.27600
C2099       C  0.20429171  0.13645981  0.86295045     0.36200
C2100       C  0.19145872  0.12462035  0.81505335     0.36200
C2101       C  0.11542187  0.22530098  0.86728240     0.36200
C2102       C  0.10121316  0.21562111  0.81864725     0.36200
C2103       C  0.16862801  0.16212291  0.93907110    -0.21300
C2104       C  0.14619553  0.18531262  0.94016825    -0.21300
C2105       C  0.11765884  0.12046216  0.76340277    -0.21300
C2106       C  0.09549650  0.14508090  0.76303561    -0.21300
C2107       C  0.23123517  0.12421156  0.84948573    -0.22300
C2108       C  0.22356882  0.11772470  0.81854624    -0.22300
C2109       C  0.09940135  0.25141498  0.85715568    -0.22300
C2110       C  0.09040782  0.24556094  0.82655840    -0.22300
C2111       C  0.19888623  0.13806800  0.89526354    -0.17700
C2112       C  0.12146234  0.21915451  0.89936996    -0.17700
C2113       C  0.09205114  0.19820535  0.79097955    -0.17700
C2114       C  0.17125163  0.11192546  0.79170805    -0.17700
H2115       H  0.17555717  0.14707601  0.95854351     0.15200
H2116       H  0.13229304  0.19168385  0.96073136     0.15200
H2117       H  0.11558506  0.09865948  0.75042588     0.15200
H2118       H  0.07327828  0.14541169  0.74983612     0.15200
H2119       H  0.25301537  0.11816977  0.86155386     0.13500
H2120       H  0.23868823  0.10599177  0.80160269     0.13500
H2121       H  0.09311738  0.27174929  0.87112964     0.13500
H2122       H  0.07564497  0.26141949  0.81318631     0.13500
H2123       H  0.16850330  0.18795148  0.86648099     0.26800
H2124       H  0.15042785  0.17216058  0.80933258     0.26800
N2125       N  0.07199320  0.89922693  0.10192202    -0.36000
N2126       N  0.05528735  0.84958465  0.14436724    -0.56500
N2127       N  0.10319981  0.80619999  0.12043011    -0.36000
N2128       N  0.12250004  0.85751445  0.07889356    -0.56500
C2129       C  0.05572886  0.91453867  0.12467427     0.27600
C2130       C  0.09269067  0.91973520  0.08972919     0.27600
C2131       C  0.09457828  0.79151420  0.14801687     0.27600
C2132       C  0.13155501  0.79483228  0.10978580     0.27600
C2133       C  0.02958408  0.86836307  0.14487767     0.36200
C2134       C  0.04510583  0.82168280  0.15483051     0.36200
C2135       C  0.12510774  0.88229275  0.05903400     0.36200
C2136       C  0.14129133  0.83481363  0.06678443     0.36200
C2137       C  0.06610421  0.94520364  0.12691769    -0.21300
C2138       C  0.08925663  0.94868209  0.10435920    -0.21300
C2139       C  0.11785965  0.76951258  0.15475544    -0.21300
C2140       C  0.14078209  0.77131345  0.13062414    -0.21300
C2141       C  0.00327447  0.85275376  0.15580301    -0.22300
C2142       C  0.01285180  0.82284427  0.16131924    -0.22300
C2143       C  0.14551867  0.87558064  0.03444114    -0.22300
C2144       C  0.15597334  0.84592196  0.03933050    -0.22300
C2145       C  0.03180604  0.90078920  0.14295309    -0.17700
C2146       C  0.11449298  0.91275598  0.06580296    -0.17700
C2147       C  0.14827115  0.80557056  0.08158907    -0.17700
C2148       C  0.06567354  0.79809325  0.16571769    -0.17700
H2149       H  0.05825784  0.96306087  0.14331243     0.15200
H2150       H  0.10253872  0.96990677  0.09981784     0.15200
H2151       H  0.11826627  0.75369400  0.17475936     0.15200
H2152       H  0.16208869  0.75728568  0.12900778     0.15200
H2153       H  0.98056816  0.86287508  0.16165214     0.13500
H2154       H  0.99869668  0.80457412  0.17186235     0.13500
H2155       H  0.15348626  0.89115061  0.01587220     0.13500
H2156       H  0.17382777  0.83491781  0.02477841     0.13500
H2157       H  0.06878835  0.87614892  0.09449903     0.26800
H2158       H  0.08972185  0.82286993  0.10863130     0.26800
N2159       N  0.79639533  0.13753018  0.12247289    -0.36000
N2160       N  0.83846576  0.11381020  0.17216652    -0.56500
N2161       N  0.89270045  0.12479976  0.13605439    -0.36000
N2162       N  0.85202026  0.14385677  0.08158835    -0.56500
C2163       C  0.77765599  0.11565802  0.13727451     0.27600
C2164       C  0.78368463  0.14538270  0.09371234     0.27600
C2165       C  0.90426866  0.10897419  0.16122602     0.27600
C2166       C  0.91143602  0.11848814  0.11114203     0.27600
C2167       C  0.80977448  0.11652253  0.18513968     0.36200
C2168       C  0.85962862  0.11939490  0.19539424     0.36200
C2169       C  0.83290026  0.16691692  0.07019083     0.36200
C2170       C  0.88230599  0.15185205  0.07368900     0.36200
C2171       C  0.75194985  0.10957455  0.11719903    -0.21300
C2172       C  0.75530558  0.12879094  0.09025700    -0.21300
C2173       C  0.93098234  0.09222634  0.15231889    -0.21300
C2174       C  0.93567943  0.09850522  0.12047966    -0.21300
C2175       C  0.81248879  0.12370031  0.21723780    -0.22300
C2176       C  0.84460950  0.12601170  0.22361628    -0.22300
C2177       C  0.85166949  0.18947903  0.05566873    -0.22300
C2178       C  0.88245716  0.17972848  0.05728096    -0.22300
C2179       C  0.78341734  0.10416996  0.16938470    -0.17700
C2180       C  0.79878262  0.16654833  0.07134011    -0.17700
C2181       C  0.91025621  0.13552170  0.08273880    -0.17700
C2182       C  0.89120787  0.11097757  0.19190675    -0.17700
H2183       H  0.73233508  0.09382130  0.12184584     0.15200
H2184       H  0.73925387  0.12954218  0.07002964     0.15200
H2185       H  0.94587095  0.07771148  0.16725988     0.15200
H2186       H  0.95529810  0.09041081  0.10614596     0.15200
H2187       H  0.79349293  0.12601251  0.23427678     0.13500
H2188       H  0.85593190  0.13048132  0.24635720     0.13500
H2189       H  0.84495719  0.21172557  0.04604877     0.13500
H2190       H  0.90277807  0.19284595  0.04889185     0.13500
H2191       H  0.81701424  0.14783723  0.13169798     0.26800
H2192       H  0.87445209  0.14122850  0.13653727     0.26800
C2193       C  0.30897410  0.05916497  0.09080657    -0.11600
C2194       C  0.31637175  0.08995191  0.08310603     0.05400
C2195       C  0.29491479  0.10821257  0.06536161    -0.06900
C2196       C  0.26737516  0.09449966  0.05346381    -0.07700
C2197       C  0.26132173  0.06268657  0.05846795    -0.02200
C2198       C  0.28150635  0.04529361  0.07849785     0.04600
N2199       N  0.27627355  0.01294900  0.08418771     0.67100
H2200       H  0.32519349  0.04558792  0.10534298     0.16000
H2201       H  0.25170241  0.10825972  0.03847234     0.15700
N2202       N  0.30163992  0.14012966  0.05784699     0.74800
O2203       O  0.28568123  0.99337496  0.06385853    -0.38600
O2204       O  0.27110788  0.00410802  0.11226284    -0.38600
O2205       O  0.31380232  0.14665753  0.03134751    -0.39300
O2206       O  0.28890973  0.16156904  0.07396231    -0.39400
C2207       C  0.14699286  0.98144244  0.01972125    -0.11600
C2208       C  0.17506218  0.98743174  0.03723509     0.05400
C2209       C  0.18197081  0.96904090  0.06427566    -0.06900
C2210       C  0.16201345  0.94457647  0.07222960    -0.07700
C2211       C  0.13446906  0.93854930  0.05465262    -0.02200
C2212       C  0.12640824  0.95732855  0.02854433     0.04600
N2213       N  0.09760322  0.95229056  0.01097764     0.67100
H2214       H  0.14079126  0.99566160  0.99934474     0.16000
H2215       H  0.16785270  0.93026310  0.09269506     0.15700
N2216       N  0.20930811  0.97417638  0.08388510     0.74800
O2217       O  0.09873936  0.93892844  0.98422353    -0.38600
O2218       O  0.07309216  0.96758290  0.01830216    -0.38600
O2219       O  0.20571913  0.98766265  0.11034833    -0.39300
O2220       O  0.23322037  0.95692463  0.07990048    -0.39400
C2221       C  0.18350867  0.06452291  0.94196574    -0.11600
C2222       C  0.21386527  0.05951412  0.95479921     0.05400
C2223       C  0.24006087  0.07633792  0.94250362    -0.06900
C2224       C  0.23485957  0.10174682  0.92280860    -0.07700
C2225       C  0.20413433  0.10914809  0.91314139    -0.02200
C2226       C  0.17852914  0.08898938  0.92069775     0.04600
N2227       N  0.14713015  0.09423093  0.90848818     0.67100
H2228       H  0.16320784  0.05134422  0.95043249     0.16000
H2229       H  0.25476183  0.11656351  0.91635423     0.15700
N2230       N  0.27187958  0.07019609  0.95246943     0.74800
O2231       O  0.13873789  0.08114840  0.88280931    -0.38600
O2232       O  0.12606944  0.10511562  0.92661307    -0.38600
O2233       O  0.28978734  0.05503988  0.93411656    -0.39300
O2234       O  0.28419947  0.08790821  0.97319822    -0.39400
C2235       C  0.25885907  0.19095758  0.30674759    -0.11600
C2236       C  0.23251115  0.20810399  0.29564513     0.05400
C2237       C  0.20217654  0.20122205  0.30852482    -0.06900
C2238       C  0.19870234  0.17626817  0.32963836    -0.07700
C2239       C  0.22474792  0.15776461  0.33852556    -0.02200
C2240       C  0.25525290  0.16597116  0.32780557     0.04600
N2241       N  0.28271748  0.14851482  0.33691428     0.67100
H2242       H  0.28248945  0.19617384  0.29828826     0.16000
H2243       H  0.17517677  0.17056458  0.33837639     0.15700
N2244       N  0.17433624  0.21836174  0.29982704     0.74800
O2245       O  0.29171851  0.12634766  0.31932326    -0.38600
O2246       O  0.30234893  0.16065803  0.35622803    -0.38600
O2247       O  0.15441161  0.20618066  0.28083262    -0.39300
O2248       O  0.16587325  0.24106537  0.31696847    -0.39400
C2249       C  0.29487038  0.25269384  0.17457413    -0.11600
C2250       C  0.29811013  0.24658552  0.20738764     0.05400
C2251       C  0.32666764  0.23291089  0.21858555    -0.06900
C2252       C  0.34879674  0.22171390  0.19680977    -0.07700
C2253       C  0.34308497  0.22428699  0.16415072    -0.02200
C2254       C  0.31723728  0.24163708  0.15299408     0.04600
N2255       N  0.31249189  0.24625494  0.11968228     0.67100
H2256       H  0.27378968  0.26383564  0.16518870     0.16000
H2257       H  0.36932677  0.20885472  0.20536080     0.15700
N2258       N  0.33310579  0.22887031  0.25169879     0.74800
O2259       O  0.29653668  0.22657997  0.10373508    -0.38600
O2260       O  0.32903756  0.26640430  0.10544042    -0.38600
O2261       O  0.33122607  0.20179717  0.26332314    -0.39300
O2262       O  0.34970117  0.24924055  0.26601598    -0.39400
C2263       C  0.09241884  0.07217811  0.29563473    -0.11600
C2264       C  0.10883182  0.05027629  0.31395139     0.05400
C2265       C  0.10239252  0.01811454  0.30991195    -0.06900
C2266       C  0.07674309  0.00890282  0.29084790    -0.07700
C2267       C  0.05748310  0.03128662  0.27611992    -0.02200
C2268       C  0.06683774  0.06300026  0.27664899     0.04600
N2269       N  0.04992819  0.08643235  0.25939223     0.67100
H2270       H  0.09774358  0.09688858  0.29824478     0.16000
H2271       H  0.07023516  0.98437268  0.28997938     0.15700
N2272       N  0.11881954  0.99489357  0.32787501     0.74800
O2273       O  0.03386953  0.10620241  0.27468606    -0.38600
O2274       O  0.05901873  0.09317151  0.23172644    -0.38600
O2275       O  0.10397447  0.98019457  0.34912783    -0.39300
O2276       O  0.14394676  0.98327158  0.31673281    -0.39400
C2277       C  0.95648928  0.08621643  0.24612112    -0.11600
C2278       C  0.94692736  0.05518570  0.25185102     0.05400
C2279       C  0.91486337  0.04663047  0.24653075    -0.06900
C2280       C  0.89528043  0.06668443  0.22922003    -0.07700
C2281       C  0.90712548  0.09550714  0.21868234    -0.02200
C2282       C  0.93638154  0.10662688  0.23005447     0.04600
N2283       N  0.94647790  0.13786724  0.22353551     0.67100
H2284       H  0.98043715  0.09392185  0.25139948     0.16000
H2285       H  0.87170030  0.05885275  0.22207931     0.15700
N2286       N  0.90205262  0.01787936  0.25822214     0.74800
O2287       O  0.93272400  0.16044065  0.23699392    -0.38600
O2288       O  0.96523327  0.14309897  0.20088446    -0.38600
O2289       O  0.88282987  0.01864754  0.28110344    -0.39300
O2290       O  0.90399698  0.99329877  0.24172664    -0.39400
C2291       C  0.98499791  0.96439326  0.18473433    -0.11600
C2292       C  0.99308687  0.95772604  0.21643241     0.05400
C2293       C  0.00875729  0.92968346  0.22372762    -0.06900
C2294       C  0.01974932  0.91092008  0.19920724    -0.07700
C2295       C  0.01478749  0.91922053  0.16729384    -0.02200
C2296       C  0.99579853  0.94536463  0.16001183     0.04600
N2297       N  0.98869786  0.95382576  0.12788795     0.67100
H2298       H  0.97279808  0.98593266  0.17890755     0.16000
H2299       H  0.03368262  0.89046415  0.20521476     0.15700
N2300       N  0.01474787  0.92048005  0.25584113     0.74800
O2301       O  0.96287322  0.94460361  0.11554833    -0.38600
O2302       O  0.00288942  0.97683750  0.11570052    -0.38600
O2303       O  0.99648861  0.90059117  0.26832504    -0.39300
O2304       O  0.04212071  0.92474170  0.26770168    -0.39400
C2305       C  0.16493395  0.31800035  0.17931374    -0.11600
C2306       C  0.14088141  0.32634837  0.20033297     0.05400
C2307       C  0.14005079  0.31315089  0.23087441    -0.06900
C2308       C  0.16433428  0.29288256  0.24038581    -0.07700
C2309       C  0.18970619  0.28584898  0.21996127    -0.02200
C2310       C  0.18924887  0.29803612  0.18866032     0.04600
N2311       N  0.21335923  0.29105391  0.16600066     0.67100
H2312       H  0.16558569  0.32828452  0.15579290     0.16000
H2313       H  0.16398400  0.28377873  0.26437033     0.15700
N2314       N  0.11583448  0.32135449  0.25300024     0.74800
O2315       O  0.20826417  0.26966903  0.14583095    -0.38600
O2316       O  0.23436664  0.31141008  0.16034135    -0.38600
O2317       O  0.09323880  0.30245292  0.25769574    -0.39300
O2318       O  0.12136073  0.34260058  0.27320872    -0.39400
C2319       C  0.98319617  0.30468474  0.08165912    -0.11600
C2320       C  0.99833021  0.30620369  0.05188790     0.05400
C2321       C  0.01428817  0.33412923  0.04377250    -0.06900
C2322       C  0.02139115  0.35589166  0.06754427    -0.07700
C2323       C  0.01147947  0.35090080  0.09879073    -0.02200
C2324       C  0.99000745  0.32678262  0.10520321     0.04600
N2325       N  0.97564357  0.32429390  0.13564104     0.67100
H2326       H  0.96808292  0.28511747  0.08766283     0.16000
H2327       H  0.03639361  0.37578590  0.06200503     0.15700
N2328       N  0.02420496  0.34058021  0.01208940     0.74800
O2329       O  0.95211844  0.34135537  0.14192690    -0.38600
O2330       O  0.98934910  0.30935199  0.15760152    -0.38600
O2331       O  0.00379106  0.35049090  0.99243574    -0.39300
O2332       O  0.05319463  0.34639860  0.00723328    -0.39400
C2333       C  0.04744095  0.21867555  0.94869426    -0.11600
C2334       C  0.05387538  0.24272402  0.97062583     0.05400
C2335       C  0.08193097  0.26090017  0.96716396    -0.06900
C2336       C  0.10321950  0.25384523  0.94279562    -0.07700
C2337       C  0.09709683  0.22902753  0.92210487    -0.02200
C2338       C  0.06882970  0.21160970  0.92474004     0.04600
N2339       N  0.06244860  0.18556802  0.90425705     0.67100
H2340       H  0.02600079  0.20463434  0.95062042     0.16000
H2341       H  0.12528794  0.26689518  0.94083555     0.15700
N2342       N  0.09058028  0.28512810  0.98900408     0.74800
O2343       O  0.04538656  0.18926708  0.87976648    -0.38600
O2344       O  0.06901368  0.15829482  0.91346379    -0.38600
O2345       O  0.10240090  0.27762322  0.01555706    -0.39300
O2346       O  0.09672837  0.31185767  0.97800883    -0.39400
C2347       C  0.95737410  0.16825118  0.09195543    -0.11600
C2348       C  0.94106653  0.14802551  0.07117916     0.05400
C2349       C  0.94934940  0.14750916  0.03875917    -0.06900
C2350       C  0.97032420  0.17025704  0.02704175    -0.07700
C2351       C  0.98292817  0.19338285  0.04740346    -0.02200
C2352       C  0.97796316  0.19094919  0.08041070     0.04600
N2353       N  0.99200928  0.21251927  0.10247803     0.67100
H2354       H  0.95157194  0.16867720  0.11702605     0.16000
H2355       H  0.97469920  0.17131498  0.00171283     0.15700
N2356       N  0.93498511  0.12558495  0.01727192     0.74800
O2357       O  0.97461934  0.23292477  0.11522537    -0.38600
O2358       O  0.01801189  0.20543976  0.11577762    -0.38600
O2359       O  0.91257163  0.13425895  0.99925023    -0.39300
O2360       O  0.94921054  0.10034051  0.01130382    -0.39400
C2361       C  0.97349017  0.33460311  0.53075166    -0.11600
C2362       C  0.95477360  0.31673526  0.50994170     0.05400
C2363       C  0.92215381  0.32376708  0.50612849    -0.06900
C2364       C  0.90803269  0.34543291  0.52621000    -0.07700
C2365       C  0.92584511  0.36022261  0.55022016    -0.02200
C2366       C  0.95925200  0.35624177  0.55104679     0.04600
N2367       N  0.97883578  0.37235718  0.57360298     0.67100
H2368       H  0.99870256  0.32980633  0.53336014     0.16000
H2369       H  0.88241603  0.34826942  0.52501466     0.15700
N2370       N  0.90258114  0.30776773  0.48329179     0.74800
O2371       O  0.98715767  0.35842576  0.59870163    -0.38600
O2372       O  0.99567626  0.39473224  0.56379876    -0.38600
O2373       O  0.88355398  0.28686474  0.49256186    -0.39300
O2374       O  0.89826317  0.31994662  0.45634386    -0.39400
C2375       C  0.88450912  0.18666532  0.49009316    -0.11600
C2376       C  0.88256186  0.17557237  0.45890240     0.05400
C2377       C  0.90741523  0.18177673  0.43739850    -0.06900
C2378       C  0.93369893  0.19901246  0.44733978    -0.07700
C2379       C  0.93564022  0.21071361  0.47832565    -0.02200
C2380       C  0.91090752  0.20418007  0.50006190     0.04600
N2381       N  0.91274491  0.21400110  0.53253994     0.67100
H2382       H  0.86603134  0.18081415  0.50692921     0.16000
H2383       H  0.95198392  0.20443166  0.43017065     0.15700
N2384       N  0.90646837  0.17037755  0.40538812     0.74800
O2385       O  0.89685257  0.23741774  0.54129737    -0.38600
O2386       O  0.92183497  0.19459875  0.55319887    -0.38600
O2387       O  0.89822386  0.18867096  0.38337618    -0.39300
O2388       O  0.92153997  0.14585214  0.39848744    -0.39400
C2389       C  0.06340951  0.27758027  0.46501561    -0.11600
C2390       C  0.03775943  0.26020188  0.45252290     0.05400
C2391       C  0.03941671  0.24877945  0.42095217    -0.06900
C2392       C  0.06409169  0.25881573  0.40126655    -0.07700
C2393       C  0.08759922  0.27903580  0.41301068    -0.02200
C2394       C  0.08866912  0.28645392  0.44562480     0.04600
N2395       N  0.11331633  0.30618044  0.45826664     0.67100
H2396       H  0.06281943  0.28598314  0.48934830     0.16000
H2397       H  0.06338138  0.25301612  0.37616416     0.15700
N2398       N  0.01448516  0.23016298  0.40733557     0.74800
O2399       O  0.10976793  0.33545362  0.45845618    -0.38600
O2400       O  0.14033206  0.29479122  0.46437052    -0.38600
O2401       O  0.99354481  0.24310796  0.39027203    -0.39300
O2402       O  0.01817512  0.20096954  0.40535842    -0.39400
C2403       C  0.89671534  0.57199901  0.33274578    -0.11600
C2404       C  0.91047372  0.57548946  0.36292393     0.05400
C2405       C  0.92956048  0.55169103  0.37560091    -0.06900
C2406       C  0.93558505  0.52521869  0.35740243    -0.07700
C2407       C  0.92304499  0.52206905  0.32644109    -0.02200
C2408       C  0.90279805  0.54557154  0.31438713     0.04600
N2409       N  0.88924077  0.54391958  0.28325502     0.67100
H2410       H  0.88165690  0.59027208  0.32314951     0.16000
H2411       H  0.95071938  0.50729850  0.36750072     0.15700
N2412       N  0.94392845  0.55457991  0.40638152     0.74800
O2413       O  0.85985394  0.53823649  0.28041139    -0.38600
O2414       O  0.90353194  0.55729249  0.26080042    -0.38600
O2415       O  0.93282071  0.53898452  0.42917725    -0.39300
O2416       O  0.97144534  0.56630951  0.40890412    -0.39400
C2417       C  0.90956212  0.41214494  0.23610575    -0.11600
C2418       C  0.90688995  0.44443171  0.24025600     0.05400
C2419       C  0.89075082  0.46225645  0.21708950    -0.06900
C2420       C  0.88037412  0.44782556  0.18896998    -0.07700
C2421       C  0.88652469  0.41612866  0.18349325    -0.02200
C2422       C  0.90032538  0.39793129  0.20790897     0.04600
N2423       N  0.90791871  0.36563335  0.20374794     0.67100
H2424       H  0.92091966  0.39790677  0.25416668     0.16000
H2425       H  0.86895498  0.46170601  0.17067571     0.15700
N2426       N  0.88670747  0.49514556  0.22042931     0.74800
O2427       O  0.88893720  0.34534556  0.21436883    -0.38600
O2428       O  0.93681383  0.35836469  0.20084034    -0.38600
O2429       O  0.90885587  0.51308288  0.21170735    -0.39300
O2430       O  0.85887594  0.50582799  0.22285434    -0.39400
C2431       C  0.03751645  0.39590621  0.30884277    -0.11600
C2432       C  0.05938274  0.41330189  0.32690208     0.05400
C2433       C  0.05254825  0.44435638  0.33519226    -0.06900
C2434       C  0.02368644  0.45745863  0.32564387    -0.07700
C2435       C  0.00114150  0.43989855  0.30821662    -0.02200
C2436       C  0.00837314  0.40865781  0.29975732     0.04600
N2437       N  0.98586572  0.38876639  0.28389759     0.67100
H2438       H  0.04271209  0.37182191  0.30273648     0.16000
H2439       H  0.01877441  0.48140763  0.33241331     0.15700
N2440       N  0.07382710  0.46228194  0.35473707     0.74800
O2441       O  0.98847600  0.38424552  0.25437529    -0.38600
O2442       O  0.96999515  0.36956254  0.30012540    -0.38600
O2443       O  0.08985781  0.48403828  0.34244034    -0.39300
O2444       O  0.07075289  0.46148792  0.38453824    -0.39400
C2445       C  0.75045941  0.45013594  0.52296769    -0.11600
C2446       C  0.74556862  0.47996260  0.53630383     0.05400
C2447       C  0.75527780  0.48552773  0.56805029    -0.06900
C2448       C  0.77282752  0.46292248  0.58414482    -0.07700
C2449       C  0.78012159  0.43422761  0.56972168    -0.02200
C2450       C  0.76764036  0.42732477  0.53938618     0.04600
N2451       N  0.77302398  0.39777008  0.52451354     0.67100
H2452       H  0.74277919  0.44498835  0.49885326     0.16000
H2453       H  0.78163956  0.46821469  0.60787393     0.15700
N2454       N  0.74776342  0.51390620  0.58436062     0.74800
O2455       O  0.75279910  0.37619681  0.52800046    -0.38600
O2456       O  0.79254760  0.39602081  0.50194453    -0.38600
O2457       O  0.72424776  0.51410901  0.60284252    -0.39300
O2458       O  0.76905137  0.53457667  0.58774112    -0.39400
C2459       C  0.79630045  0.58212841  0.52081695    -0.11600
C2460       C  0.76939736  0.58439044  0.50050018     0.05400
C2461       C  0.76718962  0.61011263  0.47969091    -0.06900
C2462       C  0.79332140  0.62984361  0.47618610    -0.07700
C2463       C  0.82193553  0.62379471  0.49229718    -0.02200
C2464       C  0.82267063  0.60166905  0.51659348     0.04600
N2465       N  0.85113401  0.59690286  0.53469450     0.67100
H2466       H  0.79846300  0.56318420  0.53766270     0.16000
H2467       H  0.79259251  0.64741373  0.45768311     0.15700
N2468       N  0.74063655  0.61418163  0.45873878     0.74800
O2469       O  0.85895319  0.61659944  0.55577510    -0.38600
O2470       O  0.87135231  0.57727623  0.52528274    -0.38600
O2471       O  0.71900770  0.63305940  0.46642904    -0.39300
O2472       O  0.74375862  0.60689508  0.42984423    -0.39400
C2473       C  0.71802868  0.48037122  0.42106672    -0.11600
C2474       C  0.71113015  0.51105097  0.43077650     0.05400
C2475       C  0.69161800  0.52979176  0.41108929    -0.06900
C2476       C  0.67579332  0.51612650  0.38500748    -0.07700
C2477       C  0.67930396  0.48422867  0.37842717    -0.02200
C2478       C  0.70248107  0.46702045  0.39496609     0.04600
N2479       N  0.70761704  0.43482912  0.38768241     0.67100
H2480       H  0.73406937  0.46598431  0.43499263     0.16000
H2481       H  0.65787304  0.52946507  0.37241738     0.15700
N2482       N  0.68420493  0.56131693  0.41927801     0.74800
O2483       O  0.72505317  0.42776078  0.36452906    -0.38600
O2484       O  0.69081036  0.41401566  0.40063338    -0.38600
O2485       O  0.69013423  0.58265574  0.39953997    -0.39300
O2486       O  0.66410523  0.56636934  0.44079495    -0.39400
C2487       C  0.78058705  0.23259480  0.30471090    -0.11600
C2488       C  0.75500795  0.22131116  0.28639451     0.05400
C2489       C  0.74272158  0.19134291  0.29196878    -0.06900
C2490       C  0.75600475  0.17308920  0.31600474    -0.07700
C2491       C  0.78313768  0.18334719  0.33286449    -0.02200
C2492       C  0.79552399  0.21347644  0.32708090     0.04600
N2493       N  0.82529976  0.22341891  0.34044947     0.67100
H2494       H  0.79082210  0.25530916  0.29954970     0.16000
H2495       H  0.74678419  0.14969141  0.31973211     0.15700
N2496       N  0.71836885  0.17833298  0.27205701     0.74800
O2497       O  0.85074981  0.21502206  0.32723114    -0.38600
O2498       O  0.82597126  0.24624101  0.35953688    -0.38600
O2499       O  0.72610981  0.16139835  0.24875577    -0.39300
O2500       O  0.69013733  0.17749573  0.28197501    -0.39400
C2501       C  0.72183168  0.33159239  0.27773621    -0.11600
C2502       C  0.71651104  0.32030083  0.24687276     0.05400
C2503       C  0.69791633  0.33822698  0.22555964    -0.06900
C2504       C  0.68074246  0.36384378  0.23724143    -0.07700
C2505       C  0.68214226  0.37152596  0.26968768    -0.02200
C2506       C  0.70466243  0.35671437  0.28942255     0.04600
N2507       N  0.70702037  0.36361993  0.32261770     0.67100
H2508       H  0.73733588  0.31909699  0.29399219     0.16000
H2509       H  0.66356244  0.37530382  0.22190712     0.15700
N2510       N  0.69338108  0.32897605  0.19318351     0.74800
O2511       O  0.73338457  0.37302989  0.33365047    -0.38600
O2512       O  0.68710578  0.35159030  0.34130719    -0.38600
O2513       O  0.66874506  0.31365325  0.18553523    -0.39300
O2514       O  0.70877642  0.34293435  0.17182742    -0.39400
C2515       C  0.76517128  0.26622470  0.15059282    -0.11600
C2516       C  0.77511496  0.25029039  0.17791060     0.05400
C2517       C  0.80754159  0.24174946  0.18119910    -0.06900
C2518       C  0.82994377  0.25508971  0.16105954    -0.07700
C2519       C  0.82018597  0.27618411  0.13787320    -0.02200
C2520       C  0.78756345  0.27979170  0.13072447     0.04600
N2521       N  0.77693881  0.30125888  0.10694353     0.67100
H2522       H  0.74028900  0.27224319  0.14739647     0.16000
H2523       H  0.85510465  0.25175002  0.16583676     0.15700
N2524       N  0.81883545  0.22361243  0.20737003     0.74800
O2525       O  0.76613050  0.29077057  0.08092865    -0.38600
O2526       O  0.77108875  0.32915994  0.11472242    -0.38600
O2527       O  0.82671636  0.19561153  0.20244143    -0.39300
O2528       O  0.82922195  0.23740589  0.23194645    -0.39400
C2529       C  0.96378861  0.57293865  0.67219449    -0.11600
C2530       C  0.97672059  0.57261409  0.70294958     0.05400
C2531       C  0.96106862  0.58870626  0.72772385    -0.06900
C2532       C  0.93313589  0.60511836  0.72083830    -0.07700
C2533       C  0.92043239  0.60479871  0.68997412    -0.02200
C2534       C  0.93562992  0.58803719  0.66561162     0.04600
N2535       N  0.92240960  0.58492376  0.63423457     0.67100
H2536       H  0.97524248  0.56079797  0.65276217     0.16000
H2537       H  0.92097893  0.61757024  0.73962829     0.15700
N2538       N  0.97187726  0.58722284  0.75998255     0.74800
O2539       O  0.93850735  0.59471854  0.61115083    -0.38600
O2540       O  0.90255463  0.56328111  0.62896928    -0.38600
O2541       O  0.98383449  0.61133060  0.77274438    -0.39300
O2542       O  0.96135893  0.56576407  0.77756288    -0.39400
C2543       C  0.01800247  0.47539434  0.65157579    -0.11600
C2544       C  0.04510507  0.49120913  0.66332846     0.05400
C2545       C  0.07540580  0.48273072  0.65225819    -0.06900
C2546       C  0.07816511  0.45770751  0.63116879    -0.07700
C2547       C  0.05123775  0.44057480  0.62139933    -0.02200
C2548       C  0.02083304  0.45002740  0.63100042     0.04600
N2549       N  0.99286888  0.43301247  0.62193530     0.67100
H2550       H  0.99442971  0.48170745  0.65961983     0.16000
H2551       H  0.10169594  0.45032333  0.62391658     0.15700
N2552       N  0.10355422  0.49892987  0.66229846     0.74800
O2553       O  0.98286617  0.41159898  0.63986085    -0.38600
O2554       O  0.97399384  0.44488395  0.60189729    -0.38600
O2555       O  0.12103546  0.48700682  0.68352479    -0.39300
O2556       O  0.11476218  0.52016975  0.64487800    -0.39400
C2557       C  0.09519480  0.58336599  0.80183437    -0.11600
C2558       C  0.10282303  0.55715664  0.82017499     0.05400
C2559       C  0.09810219  0.52700496  0.80756362    -0.06900
C2560       C  0.08445866  0.52352513  0.77742143    -0.07700
C2561       C  0.07537316  0.54974221  0.75990164    -0.02200
C2562       C  0.08155699  0.57990478  0.77185142     0.04600
N2563       N  0.07453188  0.60718553  0.75367126     0.67100
H2564       H  0.09946651  0.60669200  0.81116463     0.16000
H2565       H  0.07946957  0.50022591  0.76838975     0.15700
N2566       N  0.10557805  0.49971196  0.82525740     0.74800
O2567       O  0.04979634  0.62263911  0.75974647    -0.38600
O2568       O  0.09645647  0.61983818  0.73787720    -0.38600
O2569       O  0.08319644  0.48111294  0.83172108    -0.39300
O2570       O  0.13373401  0.48957756  0.82463388    -0.39400
C2571       C  0.30534059  0.47575782  0.55685479    -0.11600
C2572       C  0.31394275  0.48561851  0.52617558     0.05400
C2573       C  0.34407984  0.49974097  0.52205778    -0.06900
C2574       C  0.36304197  0.50690974  0.54858911    -0.07700
C2575       C  0.35236766  0.50079895  0.57947849    -0.02200
C2576       C  0.32413219  0.48338964  0.58344248     0.04600
N2577       N  0.31271535  0.47588392  0.61442352     0.67100
H2578       H  0.28265090  0.46432801  0.56075315     0.16000
H2579       H  0.38481249  0.52011885  0.54511665     0.15700
N2580       N  0.35522792  0.50838980  0.49133568     0.74800
O2581       O  0.29283325  0.49367537  0.62757672    -0.38600
O2582       O  0.31598745  0.44837984  0.62461179    -0.38600
O2583       O  0.35496957  0.53678861  0.48333305    -0.39300
O2584       O  0.37204527  0.48934258  0.47594220    -0.39400
C2585       C  0.16722320  0.41404193  0.48263383    -0.11600
C2586       C  0.15404640  0.42239044  0.51194277     0.05400
C2587       C  0.16558475  0.44899739  0.52825145    -0.06900
C2588       C  0.19284159  0.46404336  0.51738362    -0.07700
C2589       C  0.20849786  0.45302624  0.49039403    -0.02200
C2590       C  0.19463389  0.42913254  0.47189956     0.04600
N2591       N  0.21056070  0.41696135  0.44487443     0.67100
H2592       H  0.15875248  0.39328876  0.47027958     0.16000
H2593       H  0.20284483  0.48329760  0.53106198     0.15700
N2594       N  0.15248267  0.45834255  0.55803903     0.74800
O2595       O  0.23137055  0.39616622  0.44897433    -0.38600
O2596       O  0.19851275  0.42090541  0.41763139    -0.38600
O2597       O  0.16457128  0.44830064  0.58356902    -0.39300
O2598       O  0.13301525  0.48069879  0.55896324    -0.39400
C2599       C  0.28054320  0.68251673  0.65891253    -0.11600
C2600       C  0.25728357  0.67130943  0.67980760     0.05400
C2601       C  0.25759676  0.63952591  0.68916067    -0.06900
C2602       C  0.28323456  0.62092610  0.68113149    -0.07700
C2603       C  0.30797950  0.63332965  0.66339590    -0.02200
C2604       C  0.30585386  0.66338476  0.65036148     0.04600
N2605       N  0.32981417  0.67474436  0.62933451     0.67100
H2606       H  0.28029569  0.70658954  0.65100853     0.16000
H2607       H  0.28456232  0.59717358  0.68993408     0.15700
N2608       N  0.23297115  0.62615535  0.70812686     0.74800
O2609       O  0.33144221  0.66377144  0.60150150    -0.38600
O2610       O  0.35257022  0.69099043  0.64023196    -0.38600
O2611       O  0.21131408  0.61038627  0.69455954    -0.39300
O2612       O  0.23782772  0.62244318  0.73752660    -0.39400
C2613       C  0.23579365  0.68952815  0.79627257    -0.11600
C2614       C  0.20967074  0.69989962  0.77811369     0.05400
C2615       C  0.17864046  0.69209565  0.78722463    -0.06900
C2616       C  0.17417700  0.67218513  0.81288055    -0.07700
C2617       C  0.20030276  0.66051530  0.83006543    -0.02200
C2618       C  0.23129225  0.67016413  0.82248222     0.04600
N2619       N  0.25820933  0.66008843  0.84068645     0.67100
H2620       H  0.25984468  0.69512635  0.78897210     0.16000
H2621       H  0.15014552  0.66583680  0.81963161     0.15700
N2622       N  0.15162483  0.70245745  0.76939478     0.74800
O2623       O  0.27449839  0.63735334  0.83086504    -0.38600
O2624       O  0.26969551  0.67791121  0.86186708    -0.38600
O2625       O  0.13979956  0.68496438  0.74812468    -0.39300
O2626       O  0.13583829  0.72545003  0.77940795    -0.39400
C2627       C  0.16765152  0.81371044  0.67491870    -0.11600
C2628       C  0.19110059  0.82980238  0.65783598     0.05400
C2629       C  0.22194992  0.81710523  0.65558277    -0.06900
C2630       C  0.22859554  0.78872817  0.67043885    -0.07700
C2631       C  0.20524271  0.77304851  0.68790883    -0.02200
C2632       C  0.17465259  0.78588300  0.69049502     0.04600
N2633       N  0.15012638  0.77038446  0.70775439     0.67100
H2634       H  0.14373855  0.82305386  0.67634233     0.16000
H2635       H  0.25228363  0.77895917  0.66848285     0.15700
N2636       N  0.24693098  0.83245854  0.63879577     0.74800
O2637       O  0.14285714  0.78028391  0.73502797    -0.38600
O2638       O  0.13136240  0.75206850  0.69323179    -0.38600
O2639       O  0.26948683  0.84422422  0.65481792    -0.39300
O2640       O  0.25244833  0.82407214  0.61060726    -0.39400
C2641       C  0.22906059  0.55584400  0.39211345    -0.11600
C2642       C  0.22506090  0.58389487  0.40902350     0.05400
C2643       C  0.24173862  0.58856597  0.43779149    -0.06900
C2644       C  0.25969751  0.56406068  0.45058749    -0.07700
C2645       C  0.26057903  0.53482622  0.43527467    -0.02200
C2646       C  0.24663571  0.53139939  0.40491572     0.04600
N2647       N  0.24768975  0.50234458  0.38804546     0.67100
H2648       H  0.21674230  0.55211359  0.36965137     0.16000
H2649       H  0.27009801  0.56688770  0.47410022     0.15700
N2650       N  0.23919177  0.61722619  0.45509376     0.74800
O2651       O  0.22457453  0.48355519  0.39013481    -0.38600
O2652       O  0.26669248  0.49952189  0.36515954    -0.38600
O2653       O  0.21972407  0.61912894  0.47769580    -0.39300
O2654       O  0.26103135  0.63740858  0.45284616    -0.39400
C2655       C  0.06899145  0.69138588  0.48466373    -0.11600
C2656       C  0.03664336  0.69418146  0.47626239     0.05400
C2657       C  0.02353173  0.67400793  0.45309190    -0.06900
C2658       C  0.04372895  0.65422708  0.43612957    -0.07700
C2659       C  0.07681445  0.65506451  0.44136097    -0.02200
C2660       C  0.08922127  0.67210265  0.46733559     0.04600
N2661       N  0.12273802  0.67346265  0.47355613     0.67100
H2662       H  0.07916722  0.70631904  0.50302722     0.16000
H2663       H  0.03411067  0.64116020  0.41608226     0.15700
N2664       N  0.99098993  0.67638555  0.44332281     0.74800
O2665       O  0.14050202  0.69043760  0.45673835    -0.38600
O2666       O  0.13482735  0.65646118  0.49487906    -0.38600
O2667       O  0.98422207  0.69213485  0.41889377    -0.39300
O2668       O  0.97125342  0.65638004  0.45310173    -0.39400
C2669       C  0.95544183  0.70499756  0.56149572    -0.11600
C2670       C  0.95824937  0.73564655  0.55039837     0.05400
C2671       C  0.94046596  0.75950971  0.56560810    -0.06900
C2672       C  0.91892636  0.75172112  0.58969980    -0.07700
C2673       C  0.91477999  0.72057560  0.59889612    -0.02200
C2674       C  0.93439247  0.69747092  0.58555883     0.04600
N2675       N  0.93269311  0.66579851  0.59561640     0.67100
H2676       H  0.96980003  0.68642248  0.55159505     0.16000
H2677       H  0.90399772  0.76971600  0.59986635     0.15700
N2678       N  0.94266440  0.79143219  0.55608109     0.74800
O2679       O  0.91738080  0.64636212  0.57878172    -0.38600
O2680       O  0.95306002  0.65615217  0.61545419    -0.38600
O2681       O  0.92125146  0.80248644  0.53821638    -0.39300
O2682       O  0.95982065  0.80993861  0.57226285    -0.39400
C2683       C  0.08080575  0.84165959  0.50995826    -0.11600
C2684       C  0.09197704  0.83815929  0.54131081     0.05400
C2685       C  0.08236436  0.81220550  0.55939687    -0.06900
C2686       C  0.05987549  0.79173942  0.54694551    -0.07700
C2687       C  0.04689213  0.79642427  0.51664624    -0.02200
C2688       C  0.05829204  0.82071894  0.49738351     0.04600
N2689       N  0.04589979  0.82557120  0.46609594     0.67100
H2690       H  0.08793843  0.86181483  0.49615812     0.16000
H2691       H  0.05201887  0.77223115  0.56134724     0.15700
N2692       N  0.09339749  0.80757781  0.59129578     0.74800
O2693       O  0.02344246  0.84468721  0.46206616    -0.38600
O2694       O  0.06201051  0.81694681  0.44247683    -0.38600
O2695       O  0.07607592  0.81590847  0.61415291    -0.39300
O2696       O  0.11586468  0.78870539  0.59638633    -0.39400
C2697       C  0.65062038  0.30583253  0.67040757    -0.11600
C2698       C  0.63400706  0.32752240  0.68875608     0.05400
C2699       C  0.63546535  0.32535454  0.72229865    -0.06900
C2700       C  0.65739337  0.30491539  0.73653515    -0.07700
C2701       C  0.67719500  0.28646883  0.71755100    -0.02200
C2702       C  0.67195686  0.28540391  0.68437857     0.04600
N2703       N  0.68900308  0.26454032  0.66416726     0.67100
H2704       H  0.64941077  0.30663963  0.64466416     0.16000
H2705       H  0.66043739  0.30506831  0.76214411     0.15700
N2706       N  0.61653674  0.34505240  0.74200059     0.74800
O2707       O  0.67506135  0.24013559  0.65436981    -0.38600
O2708       O  0.71271184  0.27470123  0.64905369    -0.38600
O2709       O  0.59078790  0.33442023  0.75288334    -0.39300
O2710       O  0.62915280  0.36865489  0.75511419    -0.39400
C2711       C  0.69452475  0.20750352  0.80516108    -0.11600
C2712       C  0.72367210  0.20874455  0.78921242     0.05400
C2713       C  0.74553802  0.18363828  0.79303788    -0.06900
C2714       C  0.73657126  0.15729223  0.81031112    -0.07700
C2715       C  0.70688299  0.15589616  0.82478681    -0.02200
C2716       C  0.68606856  0.18148409  0.82284984     0.04600
N2717       N  0.65612795  0.18135567  0.83872544     0.67100
H2718       H  0.67763756  0.22650422  0.80337589     0.16000
H2719       H  0.75315148  0.13814045  0.81301455     0.15700
N2720       N  0.77710203  0.18448977  0.78052375     0.74800
O2721       O  0.65340210  0.19626944  0.86449065    -0.38600
O2722       O  0.63136537  0.17355344  0.82342234    -0.38600
O2723       O  0.79956742  0.19375536  0.79834420    -0.39300
O2724       O  0.78362035  0.16767374  0.75677505    -0.39400
C2725       C  0.80514609  0.26474190  0.69142583    -0.11600
C2726       C  0.77943808  0.24526859  0.69821544     0.05400
C2727       C  0.77414533  0.21770174  0.68066250    -0.06900
C2728       C  0.79639884  0.20829625  0.65865151    -0.07700
C2729       C  0.82359848  0.22638585  0.65321683    -0.02200
C2730       C  0.82732625  0.25549580  0.66877391     0.04600
N2731       N  0.85401349  0.27519303  0.66284543     0.67100
H2732       H  0.80843094  0.28656670  0.70423885     0.16000
H2733       H  0.79321839  0.18581892  0.64704322     0.15700
N2734       N  0.74621658  0.19899574  0.68491203     0.74800
O2735       O  0.87654088  0.27589238  0.68286158    -0.38600
O2736       O  0.85051155  0.29782229  0.64401956    -0.38600
O2737       O  0.72469292  0.19957024  0.66387058    -0.39300
O2738       O  0.74702807  0.17636176  0.70398276    -0.39400
C2739       C  0.46949174  0.20002820  0.57233477    -0.11600
C2740       C  0.46639261  0.23130894  0.56310803     0.05400
C2741       C  0.44921044  0.25220782  0.58266240    -0.06900
C2742       C  0.43188144  0.24041521  0.60820717    -0.07700
C2743       C  0.43183573  0.20831505  0.61453435    -0.02200
C2744       C  0.45257107  0.18843755  0.59799963     0.04600
N2745       N  0.45300372  0.15556221  0.60392311     0.67100
H2746       H  0.48373879  0.18396294  0.55851695     0.16000
H2747       H  0.41587858  0.25575850  0.62088348     0.15700
N2748       N  0.44663438  0.28471337  0.57535395     0.74800
O2749       O  0.43319030  0.13802893  0.58977360    -0.38600
O2750       O  0.47711554  0.14362545  0.61711543    -0.38600
O2751       O  0.42177555  0.29464407  0.56177517    -0.39300
O2752       O  0.46510728  0.30393165  0.58902410    -0.39400
C2753       C  0.54053937  0.21109654  0.44211629    -0.11600
C2754       C  0.51401033  0.20340346  0.46070062     0.05400
C2755       C  0.50082620  0.17297628  0.45819384    -0.06900
C2756       C  0.51443091  0.15122835  0.43748980    -0.07700
C2757       C  0.54100639  0.15941757  0.41957304    -0.02200
C2758       C  0.55414127  0.18948392  0.42195190     0.04600
N2759       N  0.58144387  0.19841471  0.40398695     0.67100
H2760       H  0.55143104  0.23398963  0.44330338     0.16000
H2761       H  0.50389809  0.12817765  0.43487246     0.15700
N2762       N  0.47277287  0.16423953  0.47486090     0.74800
O2763       O  0.57769274  0.21408305  0.37888893    -0.38600
O2764       O  0.60862679  0.19737611  0.41692661    -0.38600
O2765       O  0.44634219  0.16612290  0.46061934    -0.39300
O2766       O  0.47517514  0.14688154  0.49893535    -0.39400
C2767       C  0.51841051  0.33148939  0.52262703    -0.11600
C2768       C  0.53064789  0.30559682  0.50644214     0.05400
C2769       C  0.56397353  0.30301310  0.50212270    -0.06900
C2770       C  0.58431243  0.32269896  0.51918491    -0.07700
C2771       C  0.57170592  0.34541873  0.53907461    -0.02200
C2772       C  0.53890379  0.35170743  0.53869959     0.04600
N2773       N  0.52613402  0.37699305  0.55671044     0.67100
H2774       H  0.49292192  0.33419571  0.52541909     0.16000
H2775       H  0.60983111  0.31914243  0.51831273     0.15700
N2776       N  0.57773243  0.27868356  0.48347734     0.74800
O2777       O  0.52026852  0.37335363  0.58581197    -0.38600
O2778       O  0.52579194  0.40406037  0.54498298    -0.38600
O2779       O  0.58683142  0.28493606  0.45569219    -0.39300
O2780       O  0.58886991  0.25493189  0.49727783    -0.39400
C2781       C  0.63352892  0.01393491  0.43543903    -0.11600
C2782       C  0.64635562  0.03377299  0.41265898     0.05400
C2783       C  0.67862423  0.04255444  0.41442073    -0.06900
C2784       C  0.69640240  0.03489789  0.44124810    -0.07700
C2785       C  0.68232252  0.01901106  0.46663599    -0.02200
C2786       C  0.65125025  0.00617367  0.46242304     0.04600
N2787       N  0.63618076  0.98741461  0.48602334     0.67100
H2788       H  0.60883466  0.00662057  0.43355124     0.16000
H2789       H  0.72051504  0.04381450  0.44321194     0.15700
N2790       N  0.69252937  0.06247693  0.39109442     0.74800
O2791       O  0.61574803  0.99979386  0.50387533    -0.38600
O2792       O  0.63614124  0.95809302  0.48267249    -0.38600
O2793       O  0.69220689  0.09168712  0.39532060    -0.39300
O2794       O  0.71119919  0.05094101  0.37089007    -0.39400
C2795       C  0.64903892  0.99420014  0.57830575    -0.11600
C2796       C  0.68233460  0.99349240  0.57868435     0.05400
C2797       C  0.69840526  0.97274881  0.59907912    -0.06900
C2798       C  0.68087223  0.94981980  0.61493285    -0.07700
C2799       C  0.64779808  0.94756216  0.61028642    -0.02200
C2800       C  0.63158601  0.97115205  0.59351133     0.04600
N2801       N  0.59797354  0.96962589  0.58799851     0.67100
H2802       H  0.63658542  0.01084683  0.56340227     0.16000
H2803       H  0.69330883  0.93198862  0.62834299     0.15700
N2804       N  0.73237435  0.97234983  0.60113829     0.74800
O2805       O  0.57974048  0.98591471  0.60497809    -0.38600
O2806       O  0.58761391  0.95859441  0.56202165    -0.38600
O2807       O  0.74593351  0.98055095  0.62674005    -0.39300
O2808       O  0.74807436  0.95788814  0.58034311    -0.39400
C2809       C  0.80272269  0.10520444  0.52282413    -0.11600
C2810       C  0.81141794  0.10969297  0.55464909     0.05400
C2811       C  0.79421506  0.09471171  0.57872305    -0.06900
C2812       C  0.76937339  0.07460512  0.57073689    -0.07700
C2813       C  0.76098172  0.06875397  0.53885492    -0.02200
C2814       C  0.77752997  0.08506849  0.51462031     0.04600
N2815       N  0.76972345  0.08134084  0.48169950     0.67100
H2816       H  0.81605799  0.11677218  0.50429531     0.16000
H2817       H  0.75706871  0.06307589  0.58997412     0.15700
N2818       N  0.80272148  0.09846738  0.61148897     0.74800
O2819       O  0.75126703  0.10080039  0.46875002    -0.38600
O2820       O  0.78766482  0.06507152  0.46438261    -0.38600
O2821       O  0.78657515  0.11661296  0.62865332    -0.39300
O2822       O  0.82023506  0.07828289  0.62457903    -0.39400
C2823       C  0.42317468  0.06578874  0.77235451    -0.11600
C2824       C  0.45053032  0.05699205  0.75607952     0.05400
C2825       C  0.46246351  0.07567788  0.73147546    -0.06900
C2826       C  0.44446841  0.10057088  0.72043926    -0.07700
C2827       C  0.41496689  0.10724208  0.73406204    -0.02200
C2828       C  0.40542536  0.09121806  0.76169859     0.04600
N2829       N  0.37630424  0.09860321  0.77718328     0.67100
H2830       H  0.41478779  0.05204661  0.79222990     0.16000
H2831       H  0.45211996  0.11267881  0.69922523     0.15700
N2832       N  0.49182290  0.06847112  0.71620957     0.74800
O2833       O  0.35146010  0.08337527  0.77007803    -0.38600
O2834       O  0.37722870  0.11419912  0.80269374    -0.38600
O2835       O  0.49144862  0.05940395  0.68764727    -0.39300
O2836       O  0.51754452  0.07849572  0.72821256    -0.39400
C2837       C  0.59834972  0.00527723  0.81401390    -0.11600
C2838       C  0.59883003  0.03273469  0.83211069     0.05400
C2839       C  0.57035848  0.04880603  0.83817681    -0.06900
C2840       C  0.54197153  0.03740602  0.82602841    -0.07700
C2841       C  0.54118482  0.01102053  0.80620161    -0.02200
C2842       C  0.56970775  0.99429461  0.80074783     0.04600
N2843       N  0.57035703  0.96677376  0.78145100     0.67100
H2844       H  0.62017071  0.99237691  0.81032978     0.16000
H2845       H  0.52047719  0.05035885  0.83116422     0.15700
N2846       N  0.56988914  0.07701041  0.85654624     0.74800
O2847       O  0.57787826  0.96908623  0.75258033    -0.38600
O2848       O  0.57184408  0.94042193  0.79473761    -0.38600
O2849       O  0.57146065  0.10288880  0.84235462    -0.39300
O2850       O  0.55913082  0.07627848  0.88445292    -0.39400
C2851       C  0.49296369  0.92215716  0.74089437    -0.11600
C2852       C  0.47891810  0.94977396  0.72995122     0.05400
C2853       C  0.47407822  0.95382697  0.69689384    -0.06900
C2854       C  0.48937570  0.93385365  0.67569519    -0.07700
C2855       C  0.50811692  0.90951900  0.68720644    -0.02200
C2856       C  0.50809353  0.90224130  0.71976496     0.04600
N2857       N  0.52658109  0.87704336  0.73206680     0.67100
H2858       H  0.49594326  0.91818220  0.76619331     0.16000
H2859       H  0.48839532  0.93856517  0.65040113     0.15700
N2860       N  0.45653488  0.97956573  0.68438115     0.74800
O2861       O  0.55454195  0.88222471  0.74199924    -0.38600
O2862       O  0.51271049  0.85209560  0.73985390    -0.38600
O2863       O  0.47114688  0.00059630  0.66939719    -0.39300
O2864       O  0.42691223  0.97648587  0.68014565    -0.39400
C2865       C  0.43884250  0.60338770  0.22696617    -0.11600
C2866       C  0.43008141  0.60403222  0.19476930     0.05400
C2867       C  0.44673067  0.58609135  0.17249112    -0.06900
C2868       C  0.46983735  0.56558328  0.18292713    -0.07700
C2869       C  0.47714284  0.56283308  0.21527527    -0.02200
C2870       C  0.46294900  0.58329339  0.23736911     0.04600
N2871       N  0.47221606  0.58365331  0.27013048     0.67100
H2872       H  0.42640236  0.61784332  0.24400292     0.16000
H2873       H  0.48203095  0.55153320  0.16548170     0.15700
N2874       N  0.43977792  0.58773895  0.13925389     0.74800
O2875       O  0.49513831  0.60093249  0.27881183    -0.38600
O2876       O  0.45304752  0.57371464  0.29073876    -0.38600
O2877       O  0.45882834  0.60229307  0.12158137    -0.39300
O2878       O  0.42097356  0.56795374  0.12695964    -0.39400
C2879       C  0.54558578  0.43929103  0.19543496    -0.11600
C2880       C  0.52542578  0.46410168  0.18746976     0.05400
C2881       C  0.50933541  0.46357309  0.15756826    -0.06900
C2882       C  0.51584433  0.43993660  0.13570507    -0.07700
C2883       C  0.53758535  0.41659083  0.14311736    -0.02200
C2884       C  0.55170782  0.41555260  0.17362007     0.04600
N2885       N  0.57381970  0.39163904  0.18213934     0.67100
H2886       H  0.55766467  0.43887005  0.21830396     0.16000
H2887       H  0.50490660  0.44055046  0.11227290     0.15700
N2888       N  0.48799734  0.48768333  0.14784072     0.74800
O2889       O  0.60312505  0.39595570  0.17736075    -0.38600
O2890       O  0.56520212  0.37040172  0.20097661    -0.38600
O2891       O  0.49736333  0.50744888  0.12774735    -0.39300
O2892       O  0.45847837  0.48347388  0.15133645    -0.39400
C2893       C  0.43903426  0.74569334  0.07904885    -0.11600
C2894       C  0.44701719  0.71695929  0.06466620     0.05400
C2895       C  0.42591032  0.69142031  0.06796835    -0.06900
C2896       C  0.40008697  0.69397891  0.08853380    -0.07700
C2897       C  0.39536111  0.72124265  0.10662465    -0.02200
C2898       C  0.41377178  0.74787408  0.10030621     0.04600
N2899       N  0.40913342  0.77638091  0.11739994     0.67100
H2900       H  0.45393370  0.76614990  0.07582476     0.16000
H2901       H  0.38578963  0.67335520  0.09317410     0.15700
N2902       N  0.43209342  0.66173888  0.05372041     0.74800
O2903       O  0.42573682  0.78180852  0.14195693    -0.38600
O2904       O  0.39522786  0.79876680  0.10373252    -0.38600
O2905       O  0.44751543  0.64160572  0.06925312    -0.39300
O2906       O  0.41590514  0.65317590  0.02981526    -0.39400
C2907       C  0.56219051  0.77758919  0.02351195    -0.11600
C2908       C  0.55311565  0.76028627  0.05021589     0.05400
C2909       C  0.56388541  0.76921289  0.08069147    -0.06900
C2910       C  0.58335832  0.79544939  0.08402752    -0.07700
C2911       C  0.59141075  0.81331174  0.05746986    -0.02200
C2912       C  0.58108054  0.80428063  0.02704861     0.04600
N2913       N  0.58750016  0.82336902  0.00012937     0.67100
H2914       H  0.55353473  0.77103860  0.00005530     0.16000
H2915       H  0.59127271  0.80265767  0.10755274     0.15700
N2916       N  0.55502671  0.75219406  0.10841240     0.74800
O2917       O  0.61552741  0.82579477  0.98982871    -0.38600
O2918       O  0.56610366  0.84135926  0.98984279    -0.38600
O2919       O  0.57510316  0.73429227  0.12129180    -0.39300
O2920       O  0.53139598  0.76123722  0.12427418    -0.39400
C2921       C  0.50634052  0.65462340  0.97169167    -0.11600
C2922       C  0.52679950  0.66302061  0.99685130     0.05400
C2923       C  0.55857660  0.65258849  0.99653095    -0.06900
C2924       C  0.57043369  0.63797820  0.96961999    -0.07700
C2925       C  0.55093335  0.63168446  0.94305501    -0.02200
C2926       C  0.51802405  0.63875314  0.94493355     0.04600
N2927       N  0.49653286  0.63157994  0.91935017     0.67100
H2928       H  0.48175633  0.66221788  0.97177310     0.16000
H2929       H  0.59575067  0.63337654  0.96902554     0.15700
N2930       N  0.57968327  0.65782650  0.02288871     0.74800
O2931       O  0.48120601  0.60617849  0.92005150    -0.38600
O2932       O  0.48633995  0.65342016  0.90198797    -0.38600
O2933       O  0.58362459  0.63621816  0.04284827    -0.39300
O2934       O  0.60015031  0.67943588  0.02136357    -0.39400
C2935       C  0.70432509  0.43741051  0.04142960    -0.11600
C2936       C  0.69842108  0.46247399  0.02076759     0.05400
C2937       C  0.67115968  0.46120234  0.00050277    -0.06900
C2938       C  0.64910280  0.43701241  0.00381884    -0.07700
C2939       C  0.65390477  0.41390781  0.02650761    -0.02200
C2940       C  0.68233524  0.41323820  0.04444188     0.04600
N2941       N  0.68783293  0.38955147  0.06774172     0.67100
H2942       H  0.72530462  0.43720915  0.05656320     0.16000
H2943       H  0.62720249  0.43730839  0.99000037     0.15700
N2944       N  0.66408719  0.48513059  0.97798044     0.74800
O2945       O  0.70370895  0.36559535  0.06061584    -0.38600
O2946       O  0.67558889  0.39182216  0.09494642    -0.38600
O2947       O  0.67101202  0.48079884  0.94916495    -0.39300
O2948       O  0.64377749  0.50561952  0.98500198    -0.39400
C2949       C  0.80482380  0.54833806  0.07268407    -0.11600
C2950       C  0.78448264  0.52232161  0.07439229     0.05400
C2951       C  0.78806391  0.50126101  0.10019057    -0.06900
C2952       C  0.81092452  0.50737605  0.12388474    -0.07700
C2953       C  0.83024314  0.53392549  0.12209827    -0.02200
C2954       C  0.82733246  0.55432410  0.09611535     0.04600
N2955       N  0.84630270  0.58202737  0.09374641     0.67100
H2956       H  0.80319095  0.56477317  0.05322243     0.16000
H2957       H  0.81331464  0.49166436  0.14390766     0.15700
N2958       N  0.76864993  0.47397203  0.10317890     0.74800
O2959       O  0.87032421  0.58190756  0.07593436    -0.38600
O2960       O  0.83443915  0.60784902  0.10190258    -0.38600
O2961       O  0.78010920  0.44772570  0.09583209    -0.39300
O2962       O  0.74430160  0.47503875  0.12051285    -0.39400
C2963       C  0.73968562  0.55143205  0.94791083    -0.11600
C2964       C  0.73281363  0.56236233  0.97834814     0.05400
C2965       C  0.71488758  0.58974086  0.98214594    -0.06900
C2966       C  0.69941251  0.60237774  0.95572514    -0.07700
C2967       C  0.70133006  0.58756148  0.92599475    -0.02200
C2968       C  0.72386245  0.56351940  0.92155328     0.04600
N2969       N  0.72697316  0.54730383  0.89205320     0.67100
H2970       H  0.75393524  0.53052993  0.94502529     0.16000
H2971       H  0.68311511  0.62167391  0.95909325     0.15700
N2972       N  0.70882720  0.60254189  0.01288810     0.74800
O2973       O  0.75029993  0.55379915  0.87451373    -0.38600
O2974       O  0.71446153  0.52058527  0.88965738    -0.38600
O2975       O  0.72254141  0.62765811  0.02101685    -0.39300
O2976       O  0.68441747  0.59378515  0.02775038    -0.39400
C2977       C  0.60861827  0.53747283  0.31174191    -0.11600
C2978       C  0.61394742  0.56969540  0.30766609     0.05400
C2979       C  0.60463347  0.58398084  0.27885690    -0.06900
C2980       C  0.58765495  0.56665183  0.25639482    -0.07700
C2981       C  0.57783127  0.53606613  0.26295013    -0.02200
C2982       C  0.58994916  0.52065129  0.28986417     0.04600
N2983       N  0.57962247  0.48981576  0.29774572     0.67100
H2984       H  0.61550370  0.52634124  0.33381618     0.16000
H2985       H  0.57840990  0.57854574  0.23555961     0.15700
N2986       N  0.60698100  0.61702574  0.27434990     0.74800
O2987       O  0.59559262  0.46665070  0.28849750    -0.38600
O2988       O  0.55892584  0.48612302  0.31899724    -0.38600
O2989       O  0.62611591  0.62759688  0.25403392    -0.39300
O2990       O  0.58486917  0.63432530  0.28423417    -0.39400
C2991       C  0.73208208  0.74610169  0.32086732    -0.11600
C2992       C  0.72203138  0.75229588  0.28967180     0.05400
C2993       C  0.69198025  0.74120794  0.27908952    -0.06900
C2994       C  0.67425959  0.72162764  0.29860226    -0.07700
C2995       C  0.68603846  0.71291097  0.32833232    -0.02200
C2996       C  0.71455500  0.72614920  0.34014312     0.04600
N2997       N  0.72756091  0.71709693  0.37024351     0.67100
H2998       H  0.75533250  0.75400212  0.32902829     0.16000
H2999       H  0.65189061  0.71198762  0.28992885     0.15700
N3000       N  0.68094504  0.74606145  0.24731423     0.74800
O3001       O  0.72452245  0.73500683  0.39391549    -0.38600
O3002       O  0.74796593  0.69555426  0.37132450    -0.38600
O3003       O  0.68370937  0.72425977  0.22723958    -0.39300
O3004       O  0.66133316  0.76771125  0.24195965    -0.39400
C3005       C  0.82715911  0.70286551  0.21088099    -0.11600
C3006       C  0.81312853  0.71023663  0.24011811     0.05400
C3007       C  0.81532817  0.68814404  0.26535988    -0.06900
C3008       C  0.82950197  0.65919632  0.26023928    -0.07700
C3009       C  0.84163589  0.65153396  0.23064514    -0.02200
C3010       C  0.84112209  0.67375616  0.20590205     0.04600
N3011       N  0.85461514  0.66694337  0.17554015     0.67100
H3012       H  0.82611930  0.71912290  0.19121818     0.16000
H3013       H  0.83105226  0.64254123  0.27954810     0.15700
N3014       N  0.80279770  0.69402703  0.29626465     0.74800
O3015       O  0.83889719  0.65121569  0.15537539    -0.38600
O3016       O  0.88014846  0.68015582  0.16732079    -0.38600
O3017       O  0.77630245  0.68212920  0.30351395    -0.39300
O3018       O  0.82167326  0.70225855  0.31822938    -0.39400
C3019       C  0.71764514  0.78627076  0.17808490    -0.11600
C3020       C  0.74997647  0.78999080  0.18555359     0.05400
C3021       C  0.76923975  0.80862230  0.16584811    -0.06900
C3022       C  0.75492851  0.82593070  0.14134221    -0.07700
C3023       C  0.72176302  0.82493868  0.13674037    -0.02200
C3024       C  0.70334033  0.80356745  0.15418201     0.04600
N3025       N  0.66947480  0.80183267  0.15056102     0.67100
H3026       H  0.70279090  0.77111636  0.19216744     0.16000
H3027       H  0.76914158  0.84249041  0.12808748     0.15700
N3028       N  0.80244977  0.81267403  0.17220869     0.74800
O3029       O  0.65747642  0.78041063  0.13353799    -0.38600
O3030       O  0.65204087  0.81607193  0.17010559    -0.38600
O3031       O  0.82228307  0.79857420  0.15501343    -0.39300
O3032       O  0.81164534  0.83575503  0.18869510    -0.39400
C3033       C  0.26180558  0.58590101  0.00147636    -0.11600
C3034       C  0.27248971  0.55914970  0.01730536     0.05400
C3035       C  0.30512201  0.55114101  0.01574614    -0.06900
C3036       C  0.32514286  0.56751038  0.99505522    -0.07700
C3037       C  0.31303518  0.59180629  0.97645038    -0.02200
C3038       C  0.28148165  0.60174791  0.98063257     0.04600
N3039       N  0.26837627  0.62656745  0.96218264     0.67100
H3040       H  0.23700205  0.59271389  0.00280373     0.16000
H3041       H  0.34980495  0.56059425  0.99268751     0.15700
N3042       N  0.31795439  0.52566266  0.03347625     0.74800
O3043       O  0.25383799  0.62025916  0.93656537    -0.38600
O3044       O  0.26405242  0.65271149  0.97527838    -0.38600
O3045       O  0.32233008  0.49977880  0.01975616    -0.39300
O3046       O  0.33245828  0.53135634  0.05926269    -0.39400
C3047       C  0.19704345  0.50251030  0.95106015    -0.11600
C3048       C  0.18261135  0.50081374  0.98106277     0.05400
C3049       C  0.15274030  0.48644708  0.98408045    -0.06900
C3050       C  0.13870339  0.47238077  0.95765365    -0.07700
C3051       C  0.15337945  0.47339586  0.92775199    -0.02200
C3052       C  0.18264677  0.48901772  0.92438141     0.04600
N3053       N  0.19812076  0.49129840  0.89433240     0.67100
H3054       H  0.22026969  0.51329755  0.94844392     0.16000
H3055       H  0.11588259  0.46081591  0.96044740     0.15700
N3056       N  0.13580463  0.48689992  0.01337203     0.74800
O3057       O  0.19264313  0.51466914  0.87699088    -0.38600
O3058       O  0.22280880  0.47533695  0.88941201    -0.38600
O3059       O  0.11543951  0.50804074  0.01778090    -0.39300
O3060       O  0.13389372  0.46211378  0.02933774    -0.39400
C3061       C  0.26739569  0.46736184  0.09193401    -0.11600
C3062       C  0.23929119  0.46462176  0.07397447     0.05400
C3063       C  0.22355020  0.43517364  0.07258488    -0.06900
C3064       C  0.23826241  0.40879251  0.08541274    -0.07700
C3065       C  0.26797197  0.41143632  0.10009874    -0.02200
C3066       C  0.28199802  0.44116508  0.10461444     0.04600
N3067       N  0.31196620  0.44503445  0.12059402     0.67100
H3068       H  0.27949136  0.48966305  0.09447935     0.16000
H3069       H  0.22670120  0.38615701  0.08354122     0.15700
N3070       N  0.19267086  0.43142512  0.05870527     0.74800
O3071       O  0.33726700  0.44173987  0.10500277    -0.38600
O3072       O  0.31300135  0.46019445  0.14635118    -0.38600
O3073       O  0.18992409  0.41748946  0.03231566    -0.39300
O3074       O  0.16875033  0.43333312  0.07654919    -0.39400
C3075       C  0.55032967  0.48582879  0.78135536    -0.11600
C3076       C  0.52254502  0.49395368  0.79788397     0.05400
C3077       C  0.52184303  0.49041346  0.83131018    -0.06900
C3078       C  0.54693954  0.47537357  0.84668851    -0.07700
C3079       C  0.57232047  0.46363948  0.82928812    -0.02200
C3080       C  0.57502676  0.47023486  0.79675032     0.04600
N3081       N  0.60049706  0.45755085  0.77844750     0.67100
H3082       H  0.55137217  0.48848480  0.75575791     0.16000
H3083       H  0.54522340  0.47029743  0.87185222     0.15700
N3084       N  0.49415091  0.49736153  0.84939524     0.74800
O3085       O  0.59796436  0.43045373  0.76673143    -0.38600
O3086       O  0.62670255  0.47194642  0.77688194    -0.38600
O3087       O  0.47547422  0.47531954  0.85643742    -0.39300
O3088       O  0.49374250  0.52211590  0.86577753    -0.39400
C3089       C  0.40927369  0.51933465  0.82331045    -0.11600
C3090       C  0.41078527  0.52278862  0.79032035     0.05400
C3091       C  0.38978616  0.54344679  0.77483915    -0.06900
C3092       C  0.37093439  0.56337977  0.79324977    -0.07700
C3093       C  0.37405950  0.56357529  0.82658071    -0.02200
C3094       C  0.39189755  0.53999344  0.84166751     0.04600
N3095       N  0.39706088  0.53992970  0.87531204     0.67100
H3096       H  0.42463274  0.50279290  0.83526636     0.16000
H3097       H  0.35708576  0.58137684  0.78155327     0.15700
N3098       N  0.39034663  0.54743903  0.74113327     0.74800
O3099       O  0.38301666  0.51981653  0.89204825    -0.38600
O3100       O  0.42085131  0.55428935  0.88677213    -0.38600
O3101       O  0.36786534  0.53633498  0.72445950    -0.39300
O3102       O  0.40823553  0.56808444  0.72940128    -0.39400
C3103       C  0.48762055  0.43362566  0.70576318    -0.11600
C3104       C  0.45942466  0.44986296  0.71354493     0.05400
C3105       C  0.43045640  0.44047520  0.69913314    -0.06900
C3106       C  0.43042043  0.41588140  0.67739756    -0.07700
C3107       C  0.45870114  0.40046468  0.66931733    -0.02200
C3108       C  0.48742817  0.40907693  0.68396513     0.04600
N3109       N  0.51662168  0.39380092  0.67640538     0.67100
H3110       H  0.51031026  0.43993773  0.71644687     0.16000
H3111       H  0.40825943  0.40961363  0.66552470     0.15700
N3112       N  0.40102212  0.45585124  0.70543338     0.74800
O3113       O  0.53513430  0.40616314  0.65655860    -0.38600
O3114       O  0.52739848  0.37341136  0.69517577    -0.38600
O3115       O  0.39047140  0.47538981  0.68560997    -0.39300
O3116       O  0.38222056  0.44411727  0.72540488    -0.39400
C3117       C  0.51457830  0.31797838  0.93267073    -0.11600
C3118       C  0.51136719  0.28545741  0.92876870     0.05400
C3119       C  0.52886743  0.27049796  0.90444008    -0.06900
C3120       C  0.55114537  0.28767636  0.88701137    -0.07700
C3121       C  0.55615563  0.31944685  0.89342144    -0.02200
C3122       C  0.53673076  0.33491744  0.91546918     0.04600
N3123       N  0.54121844  0.36730920  0.92283387     0.67100
H3124       H  0.50121943  0.33043067  0.95059293     0.16000
H3125       H  0.56583016  0.27585730  0.86968282     0.15700
N3126       N  0.52493972  0.23803513  0.89737236     0.74800
O3127       O  0.52310899  0.38725353  0.91017682    -0.38600
O3128       O  0.55757682  0.37495066  0.94695537    -0.38600
O3129       O  0.50772032  0.23010673  0.87394870    -0.39300
O3130       O  0.54493968  0.21883112  0.90824396    -0.39400
C3131       C  0.44517407  0.32066987  0.02396426    -0.11600
C3132       C  0.43506410  0.29038431  0.01559229     0.05400
C3133       C  0.40670960  0.27834684  0.02869433    -0.06900
C3134       C  0.38996742  0.29601089  0.05067371    -0.07700
C3135       C  0.40119999  0.32525009  0.06040569    -0.02200
C3136       C  0.42859022  0.33805197  0.04653044     0.04600
N3137       N  0.44065979  0.36783958  0.05630746     0.67100
H3138       H  0.46684865  0.33031767  0.01413440     0.16000
H3139       H  0.36878135  0.28622422  0.06132408     0.15700
N3140       N  0.39389266  0.24873281  0.01942494     0.74800
O3141       O  0.46293724  0.36919476  0.07656495    -0.38600
O3142       O  0.43443972  0.39158754  0.03973600    -0.38600
O3143       O  0.39563015  0.22623412  0.03866382    -0.39300
O3144       O  0.37260790  0.24817615  0.99812053    -0.39400
C3145       C  0.46239334  0.17615714  0.94910749    -0.11600
C3146       C  0.47018693  0.18910525  0.97875428     0.05400
C3147       C  0.45856601  0.17462130  0.00648962    -0.06900
C3148       C  0.43282927  0.15401068  0.00404704    -0.07700
C3149       C  0.42037638  0.14642864  0.97413356    -0.02200
C3150       C  0.43726281  0.15494726  0.94651611     0.04600
N3151       N  0.42737344  0.14464712  0.91558341     0.67100
H3152       H  0.47215487  0.18595531  0.92752938     0.16000
H3153       H  0.42131068  0.14569425  0.02538590     0.15700
N3154       N  0.47081009  0.18287345  0.03720192     0.74800
O3155       O  0.41046263  0.16240343  0.89865176    -0.38600
O3156       O  0.44239448  0.12276062  0.90235454    -0.38600
O3157       O  0.45430099  0.19928474  0.05574174    -0.39300
O3158       O  0.49419626  0.16790622  0.04826243    -0.39400
C3159       C  0.32431150  0.23463162  0.83633498    -0.11600
C3160       C  0.29168286  0.24055477  0.83222111     0.05400
C3161       C  0.26944760  0.22244410  0.84938882    -0.06900
C3162       C  0.28011487  0.19750656  0.86796818    -0.07700
C3163       C  0.31248346  0.19022461  0.86955407    -0.02200
C3164       C  0.33481547  0.20960874  0.85454608     0.04600
N3165       N  0.36812997  0.20323586  0.85610890     0.67100
H3166       H  0.34194306  0.24880774  0.82436197     0.16000
H3167       H  0.26293374  0.18268372  0.87980248     0.15700
N3168       N  0.23600054  0.22756839  0.84701416     0.74800
O3169       O  0.38060513  0.18717593  0.83433078    -0.38600
O3170       O  0.38572353  0.22012658  0.87360859    -0.38600
O3171       O  0.22044038  0.21367526  0.82536661    -0.39300
O3172       O  0.22151676  0.23708809  0.87134005    -0.39400
C3173       C  0.32231743  0.27537955  0.71458226    -0.11600
C3174       C  0.31703009  0.29962786  0.73639499     0.05400
C3175       C  0.32876697  0.32988897  0.73016878    -0.06900
C3176       C  0.34449084  0.33569184  0.70178319    -0.07700
C3177       C  0.34874322  0.31172752  0.67958982    -0.02200
C3178       C  0.33797119  0.28140097  0.68608673     0.04600
N3179       N  0.34413423  0.25645775  0.66451570     0.67100
H3180       H  0.31347212  0.25202786  0.71927294     0.16000
H3181       H  0.35334673  0.35901783  0.69691599     0.15700
N3182       N  0.32597577  0.35465117  0.75283834     0.74800
O3183       O  0.32595031  0.25203825  0.64088386    -0.38600
O3184       O  0.37118041  0.24388713  0.66509725    -0.38600
O3185       O  0.34945912  0.36083971  0.77071864    -0.39300
O3186       O  0.30481514  0.37511825  0.74874662    -0.39400
C3187       C  0.22378367  0.35577591  0.78476209    -0.11600
C3188       C  0.22059151  0.32413755  0.79315788     0.05400
C3189       C  0.19119924  0.31305743  0.80459432    -0.06900
C3190       C  0.16640932  0.33398910  0.80916030    -0.07700
C3191       C  0.17037617  0.36569629  0.80238263    -0.02200
C3192       C  0.19887279  0.37659388  0.78923305     0.04600
N3193       N  0.20299845  0.40869685  0.78089823     0.67100
H3194       H  0.24606715  0.36470096  0.77564703     0.16000
H3195       H  0.14428025  0.32566978  0.81927884     0.15700
N3196       N  0.18577155  0.28083671  0.81141791     0.74800
O3197       O  0.21719848  0.42693708  0.79997560    -0.38600
O3198       O  0.19957075  0.41668339  0.75223331    -0.38600
O3199       O  0.17823855  0.27328108  0.83932775    -0.39300
O3200       O  0.17860673  0.26260019  0.78880336    -0.39400
C3201       C  0.45613513  0.85196832  0.53803433    -0.11600
C3202       C  0.43496780  0.83077287  0.52325988     0.05400
C3203       C  0.40661432  0.82219857  0.53847613    -0.06900
C3204       C  0.39916177  0.83602346  0.56722497    -0.07700
C3205       C  0.41977811  0.85779823  0.58140111    -0.02200
C3206       C  0.44874348  0.86553852  0.56714045     0.04600
N3207       N  0.47048617  0.88725335  0.58146141     0.67100
H3208       H  0.47837480  0.85827318  0.52678633     0.16000
H3209       H  0.37688257  0.82997868  0.57859086     0.15700
N3210       N  0.38450549  0.80051266  0.52481205     0.74800
O3211       O  0.49598420  0.87711878  0.59354010    -0.38600
O3212       O  0.46881209  0.91572075  0.57396401    -0.38600
O3213       O  0.38013415  0.77475796  0.53864540    -0.39300
O3214       O  0.36324513  0.81055967  0.50615947    -0.39400
C3215       C  0.25175723  0.94698272  0.55470034    -0.11600
C3216       C  0.25453732  0.97949836  0.55893030     0.05400
C3217       C  0.26847355  0.99127719  0.58712080    -0.06900
C3218       C  0.28440043  0.97078829  0.60732283    -0.07700
C3219       C  0.28642519  0.93901861  0.59948222    -0.02200
C3220       C  0.26868358  0.92674561  0.57405130     0.04600
N3221       N  0.26975988  0.89433065  0.56594058     0.67100
H3222       H  0.23977086  0.93718282  0.53409097     0.16000
H3223       H  0.29657231  0.97984224  0.62826560     0.15700
N3224       N  0.26687747  0.02367243  0.59536991     0.74800
O3225       O  0.24585878  0.87739093  0.57164093    -0.38600
O3226       O  0.28975859  0.88519271  0.54573482    -0.38600
O3227       O  0.24549128  0.03257193  0.61421260    -0.39300
O3228       O  0.29099522  0.04084202  0.59147764    -0.39400
C3229       C  0.29642144  0.07949801  0.46670951    -0.11600
C3230       C  0.30278813  0.05634740  0.48924678     0.05400
C3231       C  0.33372530  0.05391876  0.50261061    -0.06900
C3232       C  0.35809452  0.07328597  0.49162545    -0.07700
C3233       C  0.35197198  0.09484197  0.46760416    -0.02200
C3234       C  0.32072595  0.09869020  0.45576480     0.04600
N3235       N  0.31387764  0.12055333  0.43103637     0.67100
H3236       H  0.27278277  0.08168678  0.45645270     0.16000
H3237       H  0.38216367  0.07033705  0.50057165     0.15700
N3238       N  0.34163916  0.03008645  0.52495560     0.74800
O3239       O  0.32178968  0.11464212  0.40278434    -0.38600
O3240       O  0.30053613  0.14611782  0.43755088    -0.38600
O3241       O  0.35272618  0.00458347  0.51485437    -0.39300
O3242       O  0.34625176  0.03759909  0.55365585    -0.39400
C3243       C  0.19761946  0.99635298  0.43581348    -0.11600
C3244       C  0.22375136  0.98141474  0.44934575     0.05400
C3245       C  0.22899687  0.94943787  0.44311792    -0.06900
C3246       C  0.20678729  0.93248349  0.42518141    -0.07700
C3247       C  0.17913003  0.94684404  0.41369873    -0.02200
C3248       C  0.17507372  0.97925862  0.41846199     0.04600
N3249       N  0.14817144  0.99531924  0.40604498     0.67100
H3250       H  0.19338427  0.02088455  0.44074700     0.16000
H3251       H  0.21013955  0.90755670  0.42206370     0.15700
N3252       N  0.25582510  0.93344723  0.45623435     0.74800
O3253       O  0.15274359  0.01358156  0.38313577    -0.38600
O3254       O  0.12439303  0.99963151  0.42365384    -0.38600
O3255       O  0.25161712  0.91463471  0.47884595    -0.39300
O3256       O  0.28074978  0.93121051  0.43986706    -0.39400
C3257       C  0.52428408  0.85363349  0.37886028    -0.11600
C3258       C  0.54457229  0.87317466  0.39646078     0.05400
C3259       C  0.53612035  0.88285565  0.42713856    -0.06900
C3260       C  0.50861957  0.87073989  0.44077404    -0.07700
C3261       C  0.48998854  0.84836760  0.42444447    -0.02200
C3262       C  0.49714808  0.84105117  0.39250591     0.04600
N3263       N  0.47832199  0.81966591  0.37405158     0.67100
H3264       H  0.53067770  0.84652280  0.35498061     0.16000
H3265       H  0.50350244  0.87693844  0.46519855     0.15700
N3266       N  0.55613279  0.90333063  0.44538017     0.74800
O3267       O  0.45612865  0.83027102  0.35688265    -0.38600
O3268       O  0.48950786  0.79305671  0.36769934    -0.38600
O3269       O  0.54869597  0.93177051  0.44786752    -0.39300
O3270       O  0.57586807  0.89186700  0.46483088    -0.39400
C3271       C  0.54241345  0.94127739  0.21854333    -0.11600
C3272       C  0.54521189  0.97314099  0.22653421     0.05400
C3273       C  0.57262520  0.98356776  0.24323588    -0.06900
C3274       C  0.59446444  0.96181950  0.25482811    -0.07700
C3275       C  0.58874361  0.92976098  0.25122278    -0.02200
C3276       C  0.56407459  0.91949228  0.23096358     0.04600
N3277       N  0.55921449  0.88686074  0.22543348     0.67100
H3278       H  0.52168226  0.93291262  0.20551673     0.16000
H3279       H  0.61364154  0.96980632  0.27027619     0.15700
N3280       N  0.57689636  0.01570172  0.25173293     0.74800
O3281       O  0.54032822  0.87177135  0.24284294    -0.38600
O3282       O  0.57815470  0.87223050  0.20768190    -0.38600
O3283       O  0.56868369  0.02472082  0.27904909    -0.39300
O3284       O  0.59661477  0.03194914  0.23642481    -0.39400
C3285       C  0.43993660  0.97535714  0.16357363    -0.11600
C3286       C  0.44584536  0.00598185  0.17363431     0.05400
C3287       C  0.42296191  0.02944243  0.16743531    -0.06900
C3288       C  0.39379648  0.02138846  0.15336353    -0.07700
C3289       C  0.38719229  0.99029476  0.14544292    -0.02200
C3290       C  0.41081792  0.96726484  0.14986987     0.04600
N3291       N  0.40528830  0.93531937  0.14128869     0.67100
H3292       H  0.45692122  0.95700200  0.16871465     0.16000
H3293       H  0.37642656  0.03940981  0.14829773     0.15700
N3294       N  0.42928219  0.06154745  0.17466564     0.74800
O3295       O  0.39506620  0.91666555  0.16204012    -0.38600
O3296       O  0.41834843  0.92442927  0.11674165    -0.38600
O3297       O  0.44146553  0.07848012  0.15352796    -0.39300
O3298       O  0.41487760  0.07450888  0.19731359    -0.39400
C3299       C  0.42211600  0.05722295  0.31278813    -0.11600
C3300       C  0.44461763  0.06910278  0.33431924     0.05400
C3301       C  0.47649287  0.05938613  0.33242626    -0.06900
C3302       C  0.48607508  0.04108106  0.30685971    -0.07700
C3303       C  0.46431635  0.03217404  0.28319253    -0.02200
C3304       C  0.43154522  0.03840000  0.28751688     0.04600
N3305       N  0.40754240  0.02601975  0.26667047     0.67100
H3306       H  0.39735189  0.06398842  0.31468655     0.16000
H3307       H  0.51114439  0.03586509  0.30444629     0.15700
N3308       N  0.50029155  0.07109826  0.35363073     0.74800
O3309       O  0.39617577  0.99930632  0.27237753    -0.38600
O3310       O  0.39169320  0.04451148  0.24951918    -0.38600
O3311       O  0.50632421  0.05607624  0.37869727    -0.39300
O3312       O  0.52164523  0.08831973  0.34218659    -0.39400
C3313       C  0.41389924  0.69812862  0.43960392    -0.11600
C3314       C  0.43061007  0.69063943  0.41208721     0.05400
C3315       C  0.45587462  0.70937604  0.40195283    -0.06900
C3316       C  0.46294135  0.73653873  0.41851295    -0.07700
C3317       C  0.44379198  0.74647015  0.44382940    -0.02200
C3318       C  0.42011679  0.72610571  0.45556176     0.04600
N3319       N  0.40084510  0.73397803  0.48211609     0.67100
H3320       H  0.39467794  0.68313497  0.44750810     0.16000
H3321       H  0.48247471  0.75078091  0.41017785     0.15700
N3322       N  0.47293204  0.70237887  0.37357324     0.74800
O3323       O  0.37368732  0.74551815  0.47704199    -0.38600
O3324       O  0.40636872  0.72080449  0.50837128    -0.38600
O3325       O  0.46543346  0.71618668  0.34814860    -0.39300
O3326       O  0.49960631  0.68906383  0.37563513    -0.39400
C3327       C  0.18417367  0.79156469  0.27567354    -0.11600
C3328       C  0.21400153  0.78263937  0.28780464     0.05400
C3329       C  0.21953344  0.78347899  0.32092812    -0.06900
C3330       C  0.19671375  0.79673894  0.34081744    -0.07700
C3331       C  0.16818707  0.80814481  0.32814466    -0.02200
C3332       C  0.16105290  0.80384489  0.29569392     0.04600
N3333       N  0.13136216  0.81398650  0.28249100     0.67100
H3334       H  0.17950096  0.79062497  0.25029564     0.16000
H3335       H  0.20188918  0.79956935  0.36595243     0.15700
N3336       N  0.24909908  0.77360436  0.33444028     0.74800
O3337       O  0.12673427  0.84262772  0.27720976    -0.38600
O3338       O  0.10849090  0.79490346  0.27989329    -0.38600
O3339       O  0.26933862  0.79392840  0.34289744    -0.39300
O3340       O  0.25119168  0.74630215  0.34547266    -0.39400
C3341       C  0.35857045  0.70303403  0.26032491    -0.11600
C3342       C  0.34439989  0.67557568  0.27196716     0.05400
C3343       C  0.31119799  0.67173781  0.26897900    -0.06900
C3344       C  0.29256633  0.69598139  0.25709207    -0.07700
C3345       C  0.30625117  0.72480060  0.24905110    -0.02200
C3346       C  0.33967339  0.72789761  0.24948773     0.04600
N3347       N  0.35450559  0.75698117  0.24195272     0.67100
H3348       H  0.38407066  0.70635010  0.26270038     0.16000
H3349       H  0.26689355  0.69319264  0.25681634     0.15700
N3350       N  0.29563324  0.64512760  0.28206290     0.74800
O3351       O  0.35387726  0.77936822  0.26155249    -0.38600
O3352       O  0.36817503  0.76035763  0.21560202    -0.38600
O3353       O  0.29406673  0.64212321  0.31184709    -0.39300
O3354       O  0.28737434  0.62282612  0.26406042    -0.39400
C3355       C  0.29891959  0.85693663  0.15998568    -0.11600
C3356       C  0.27355012  0.87814368  0.15878660     0.05400
C3357       C  0.24597030  0.87204348  0.17610710    -0.06900
C3358       C  0.24460501  0.84547569  0.19520692    -0.07700
C3359       C  0.27038247  0.82434176  0.19745100    -0.02200
C3360       C  0.29753234  0.83005344  0.17866909     0.04600
N3361       N  0.32382240  0.80908992  0.17766214     0.67100
H3362       H  0.31996211  0.86117088  0.14583531     0.16000
H3363       H  0.22301737  0.84170385  0.20858610     0.15700
N3364       N  0.21922396  0.89251959  0.17471347     0.74800
O3365       O  0.32366250  0.78792106  0.15669820    -0.38600
O3366       O  0.35019416  0.81808990  0.18908100    -0.38600
O3367       O  0.19499521  0.88447576  0.15868821    -0.39300
O3368       O  0.21665984  0.91378016  0.19538821    -0.39400
C3369       C  0.92230500  0.01473643  0.70292797    -0.11600
C3370       C  0.95099900  0.99944666  0.69606551     0.05400
C3371       C  0.95267108  0.97981684  0.66919389    -0.06900
C3372       C  0.92525290  0.97403217  0.65117619    -0.07700
C3373       C  0.89598571  0.98741685  0.65952829    -0.02200
C3374       C  0.89476238  0.00861903  0.68505990     0.04600
N3375       N  0.86559455  0.02314315  0.69389092     0.67100
H3376       H  0.92063757  0.02986539  0.72357468     0.16000
H3377       H  0.92655524  0.95795883  0.63124671     0.15700
N3378       N  0.98182966  0.96532549  0.66007474     0.74800
O3379       O  0.84983680  0.01198723  0.71662542    -0.38600
O3380       O  0.86006893  0.05066095  0.68477089    -0.38600
O3381       O  0.98641686  0.93698083  0.66681494    -0.39300
O3382       O  0.99842304  0.97788795  0.63872994    -0.39400
C3383       C  0.03492677  0.92328114  0.74274943    -0.11600
C3384       C  0.02187504  0.94245584  0.76647722     0.05400
C3385       C  0.02528427  0.93390403  0.79864933    -0.06900
C3386       C  0.04427625  0.90869801  0.80659775    -0.07700
C3387       C  0.06111312  0.89276332  0.78325145    -0.02200
C3388       C  0.05475846  0.89843603  0.75099208     0.04600
N3389       N  0.06985225  0.88073786  0.72661742     0.67100
H3390       H  0.03184094  0.92902767  0.71784859     0.16000
H3391       H  0.04878145  0.90372628  0.83150780     0.15700
N3392       N  0.01185775  0.95161071  0.82390637     0.74800
O3393       O  0.05493352  0.85819455  0.71396531    -0.38600
O3394       O  0.09350783  0.89222483  0.71250334    -0.38600
O3395       O  0.98325884  0.94651942  0.83130251    -0.39300
O3396       O  0.03052792  0.96301078  0.84460069    -0.39400
C3397       C  0.99465912  0.08300737  0.76813852    -0.11600
C3398       C  0.00144153  0.05481369  0.78369671     0.05400
C3399       C  0.99969403  0.05401445  0.81726773    -0.06900
C3400       C  0.98489245  0.07839224  0.83337651    -0.07700
C3401       C  0.97228287  0.10338863  0.81653602    -0.02200
C3402       C  0.97939151  0.10704080  0.78423930     0.04600
N3403       N  0.96789507  0.13318371  0.76675803     0.67100
H3404       H  0.99724739  0.08483671  0.74258519     0.16000
H3405       H  0.98023759  0.07618123  0.85858903     0.15700
N3406       N  0.00874245  0.02738873  0.83523174     0.74800
O3407       O  0.98631364  0.15602853  0.76233907    -0.38600
O3408       O  0.94300698  0.13040787  0.74995218    -0.38600
O3409       O  0.03610283  0.02735973  0.84786469    -0.39300
O3410       O  0.98696735  0.01130329  0.84772523    -0.39400
C3411       C  0.91903912  0.73014338  0.95078657    -0.11600
C3412       C  0.94642086  0.73929564  0.93430144     0.05400
C3413       C  0.95063566  0.72953444  0.90254377    -0.06900
C3414       C  0.92979381  0.70753837  0.88974164    -0.07700
C3415       C  0.90498738  0.69559245  0.90813632    -0.02200
C3416       C  0.89846382  0.70805077  0.93807644     0.04600
N3417       N  0.87274545  0.69667027  0.95683467     0.67100
H3418       H  0.91478817  0.73805899  0.97469927     0.16000
H3419       H  0.93416394  0.69821090  0.86617190     0.15700
N3420       N  0.97601335  0.74101722  0.88329616     0.74800
O3421       O  0.87803234  0.67562720  0.97711651    -0.38600
O3422       O  0.84783464  0.71287896  0.95905609    -0.38600
O3423       O  0.99899467  0.72324924  0.87685605    -0.39300
O3424       O  0.97122330  0.76472584  0.86619541    -0.39400
C3425       C  0.98790986  0.82971929  0.03310434    -0.11600
C3426       C  0.97574802  0.79984372  0.02660983     0.05400
C3427       C  0.94834904  0.78936149  0.04293675    -0.06900
C3428       C  0.93289585  0.80923377  0.06375312    -0.07700
C3429       C  0.94565871  0.83843839  0.07126535    -0.02200
C3430       C  0.97296809  0.84913485  0.05524189     0.04600
N3431       N  0.98532438  0.87980437  0.06055062     0.67100
H3432       H  0.00811129  0.83856552  0.01997785     0.16000
H3433       H  0.91167002  0.80104825  0.07570569     0.15700
N3434       N  0.93634727  0.75819585  0.03969977     0.74800
O3435       O  0.00996108  0.88296389  0.07745337    -0.38600
O3436       O  0.97774228  0.90141157  0.04166359    -0.38600
O3437       O  0.94908431  0.73695782  0.05612562    -0.39300
O3438       O  0.90811801  0.75429114  0.02993396    -0.39400
C3439       C  0.06327032  0.80306726  0.93640284    -0.11600
C3440       C  0.05552004  0.77247397  0.94483893     0.05400
C3441       C  0.06888357  0.74726307  0.92780728    -0.06900
C3442       C  0.08637940  0.75300254  0.90035964    -0.07700
C3443       C  0.09080145  0.78357035  0.88974871    -0.02200
C3444       C  0.08051517  0.80892030  0.90889124     0.04600
N3445       N  0.08597163  0.84073524  0.89997991     0.67100
H3446       H  0.05292845  0.82259592  0.94911792     0.16000
H3447       H  0.09574146  0.73354704  0.88681765     0.15700
N3448       N  0.06350637  0.71566193  0.93729041     0.74800
O3449       O  0.06409805  0.85546686  0.88585934    -0.38600
O3450       O  0.10793380  0.85598321  0.91368492    -0.38600
O3451       O  0.04351689  0.69912110  0.92220657    -0.39300
O3452       O  0.08400924  0.70240993  0.95461113    -0.39400
C3453       C  0.78854967  0.03525184  0.89702552    -0.11600
C3454       C  0.81052017  0.02313652  0.91932375     0.05400
C3455       C  0.84300475  0.03147992  0.91654242    -0.06900
C3456       C  0.85206448  0.05390661  0.89470355    -0.07700
C3457       C  0.82969857  0.06869512  0.87556392    -0.02200
C3458       C  0.79818401  0.05781769  0.87492853     0.04600
N3459       N  0.77587442  0.07027821  0.85269380     0.67100
H3460       H  0.76365429  0.02859235  0.89787760     0.16000
H3461       H  0.87667669  0.06168526  0.89447761     0.15700
N3462       N  0.86738095  0.01896444  0.93643210     0.74800
O3463       O  0.77549333  0.06003342  0.82453717    -0.38600
O3464       O  0.76266705  0.09592285  0.85871796    -0.38600
O3465       O  0.87598941  0.99109192  0.93193375    -0.39300
O3466       O  0.88689898  0.03790157  0.94905778    -0.39400
C3467       C  0.71457360  0.95170646  0.93439608    -0.11600
C3468       C  0.73313623  0.94783909  0.96212752     0.05400
C3469       C  0.72554633  0.92269807  0.98280796    -0.06900
C3470       C  0.70131569  0.90144875  0.97445327    -0.07700
C3471       C  0.68391244  0.90508046  0.94628846    -0.02200
C3472       C  0.69008636  0.93080170  0.92659812     0.04600
N3473       N  0.67175009  0.93557840  0.89828149     0.67100
H3474       H  0.71909579  0.97101712  0.91844805     0.16000
H3475       H  0.69628075  0.88181774  0.98985577     0.15700
N3476       N  0.74251004  0.91761723  0.01188657     0.74800
O3477       O  0.64289996  0.94324169  0.90043106    -0.38600
O3478       O  0.68230128  0.92622903  0.87192987    -0.38600
O3479       O  0.72916748  0.92426440  0.03780942    -0.39300
O3480       O  0.76562523  0.89887728  0.01206787    -0.39400
C3481       C  0.80478239  0.97309520  0.05667524    -0.11600
C3482       C  0.81866359  0.99004208  0.03171794     0.05400
C3483       C  0.84986653  0.00236146  0.03650349    -0.06900
C3484       C  0.86739340  0.99415994  0.06343729    -0.07700
C3485       C  0.85499320  0.97326708  0.08511665    -0.02200
C3486       C  0.82284404  0.96417245  0.08300785     0.04600
N3487       N  0.80937605  0.94297415  0.10543786     0.67100
H3488       H  0.78064414  0.96428716  0.05466799     0.16000
H3489       H  0.89211748  0.00135909  0.06556598     0.15700
N3490       N  0.86644222  0.01929997  0.01282296     0.74800
O3491       O  0.79290391  0.95354102  0.12797096    -0.38600
O3492       O  0.80818657  0.91417108  0.09894451    -0.38600
O3493       O  0.86503165  0.04875597  0.01349083    -0.39300
O3494       O  0.89080291  0.00655245  0.00122293    -0.39400
C3495       C  0.78032476  0.68001203  0.75251790    -0.11600
C3496       C  0.79301458  0.70748339  0.73949725     0.05400
C3497       C  0.82649370  0.71045270  0.73684973    -0.06900
C3498       C  0.84626364  0.68809082  0.75094987    -0.07700
C3499       C  0.83307346  0.66332678  0.76793700    -0.02200
C3500       C  0.79998854  0.65855335  0.76756291     0.04600
N3501       N  0.78587061  0.63462920  0.78637459     0.67100
H3502       H  0.75477121  0.67690731  0.75435348     0.16000
H3503       H  0.87181881  0.69173533  0.75131350     0.15700
N3504       N  0.84099797  0.73745447  0.72336319     0.74800
O3505       O  0.78367515  0.63803595  0.81609735    -0.38600
O3506       O  0.77797494  0.60907180  0.77359144    -0.38600
O3507       O  0.84978107  0.75943250  0.74154680    -0.39300
O3508       O  0.85348983  0.73505310  0.69631714    -0.39400
C3509       C  0.71112957  0.75234966  0.81348271    -0.11600
C3510       C  0.70441498  0.76556851  0.78356620     0.05400
C3511       C  0.67802430  0.78557786  0.78027044    -0.06900
C3512       C  0.66073202  0.79403086  0.80697143    -0.07700
C3513       C  0.66845512  0.78221817  0.83706393    -0.02200
C3514       C  0.69318395  0.76036021  0.84020041     0.04600
N3515       N  0.70038995  0.74625072  0.87010853     0.67100
H3516       H  0.73111263  0.73666146  0.81646992     0.16000
H3517       H  0.64110181  0.81022039  0.80425883     0.15700
N3518       N  0.66794093  0.79702743  0.74996412     0.74800
O3519       O  0.68843828  0.71991646  0.87644156    -0.38600
O3520       O  0.72420093  0.75578821  0.88590909    -0.38600
O3521       O  0.64624943  0.78250802  0.73504368    -0.39300
O3522       O  0.67385590  0.82503602  0.74272878    -0.39400
C3523       C  0.75663115  0.84202324  0.71141673    -0.11600
C3524       C  0.76625552  0.81282487  0.69926901     0.05400
C3525       C  0.78345771  0.81179908  0.67068278    -0.06900
C3526       C  0.79066787  0.83953265  0.65508301    -0.07700
C3527       C  0.78038540  0.86853259  0.66682611    -0.02200
C3528       C  0.76344074  0.86975729  0.69541811     0.04600
N3529       N  0.75244353  0.89871371  0.70819578     0.67100
H3530       H  0.74372313  0.84348500  0.73356492     0.16000
H3531       H  0.80392170  0.83833729  0.63310698     0.15700
N3532       N  0.79249677  0.78295764  0.65619409     0.74800
O3533       O  0.72423563  0.90713136  0.70242166    -0.38600
O3534       O  0.76727416  0.91096082  0.73132453    -0.38600
O3535       O  0.77407051  0.77062381  0.63585152    -0.39300
O3536       O  0.82147064  0.77535713  0.65642008    -0.39400
loop_ 
_geom_bond_atom_site_label_1 
_geom_bond_atom_site_label_2 
_geom_bond_distance 
_geom_bond_site_symmetry_2 
_ccdc_geom_bond_type 
O1           C17   1.279       .  A
O1           Zn7   2.081       .  S
C2           O18   1.280       .  A
C2           O15   1.288       .  A
C2          C510   1.510       .  S
O3           C16   1.279       .  A
O3          Cd10   2.137       .  S
O4           C22   1.303       .  A
O4          Cd13   2.194       .  S
O5           C19   1.283       .  A
O5           Cd9   2.117       .  S
O6           C17   1.280       .  A
O6           Cd9   2.145       .  S
Zn7          O18   2.054       .  S
Zn7          O20   2.097       .  S
Zn7          O12   1.957       .  S
O8           C19   1.287       .  A
O8          Cd13   2.176       .  S
Cd9          O11   2.153       .  S
Cd9          O12   2.023       .  S
Cd10         O14   2.119       .  S
Cd10         O23   2.135       .  S
Cd10         O12   2.135       .  S
O11          C21   1.297       .  A
O12         Cd13   2.044       .  S
Cd13         O15   2.164       .  S
O14          C21   1.276       .  A
C16          O20   1.289       .  A
C16        C1013   1.534       .  S
C17        C1742   1.516       .  S
C19         C871   1.521       .  S
C21        C1372   1.522       .  S
C22          O23   1.278       .  A
C22        C1560   1.536       .  S
O24          C40   1.286       .  A
O24         Zn30   2.139       .  S
C25          O41   1.283       .  A
C25          O38   1.285       .  A
C25        C1743   1.518       .  S
O26          C39   1.273       .  A
O26         Cd33   2.107       .  S
O27          C45   1.300       .  A
O27         Cd36   2.178       .  S
O28          C42   1.286       .  A
O28         Cd32   2.153       .  S
O29          C40   1.286       .  A
O29         Cd32   2.158       .  S
Zn30         O41   2.080       .  S
Zn30         O43   2.139       .  S
Zn30         O35   1.980       .  S
O31          C42   1.286       .  A
O31         Cd36   2.155       .  S
Cd32         O34   2.188       .  S
Cd32         O35   2.035       .  S
Cd33         O37   2.099       .  S
Cd33         O46   2.101       .  S
Cd33         O35   2.133       .  S
O34          C44   1.303       .  A
O35         Cd36   2.026       .  S
Cd36         O38   2.161       .  S
O37          C44   1.271       .  A
C39          O43   1.300       .  A
C39        C1099   1.528       .  S
C40         C905   1.532       .  S
C42         C665   1.523       .  S
C44        C2080   1.526       .  S
C45          O46   1.273       .  A
C45        C1298   1.528       .  S
C47        C3496   1.478       .  S
C47          N48   1.359       .  A
C47          N52   1.359       .  A
N48          C49   1.362       .  A
C49        C3524   1.475       .  S
C49          N50   1.356       .  A
N50          C51   1.350       .  A
C51        C3510   1.474       .  S
C51          N52   1.351       .  A
C53        C3468   1.493       .  S
C53          N54   1.357       .  A
C53          N58   1.359       .  A
N54          C55   1.364   1_556  A
C55        C3482   1.490       .  S
C55          N56   1.358   1_564  A
N56          C57   1.360       .  A
C57        C3454   1.481       .  S
C57          N58   1.358   1_545  A
C59        C3426   1.468   1_556  S
C59          N60   1.365   1_655  A
C59          N64   1.346       .  A
N60          C61   1.367       .  A
C61        C3440   1.459       .  S
C61          N62   1.351       .  A
N62          C63   1.344   1_455  A
C63        C3412   1.457       .  S
C63          N64   1.344       .  A
C65        C3370   1.469   1_545  S
C65          N66   1.351   1_545  A
C65          N70   1.351       .  A
N66          C67   1.355   1_655  A
C67        C3384   1.464       .  S
C67          N68   1.361       .  A
N68          C69   1.357   1_565  A
C69        C3398   1.477       .  S
C69          N70   1.359   1_455  A
N71          C76   1.350       .  A
N71          C75   1.343       .  A
N71         H103   1.040       .  S
N72          C79   1.360       .  A
N72          C80   1.359       .  A
N73          C78   1.376       .  A
N73          C77   1.366       .  A
N73         H104   1.030       .  S
N74          C81   1.339       .  A
N74          C82   1.335       .  A
C75          C83   1.393       .  A
C75          C91   1.405       .  A
C76          C92   1.395       .  A
C76          C84   1.381       .  A
C77          C85   1.392       .  A
C77          C94   1.465       .  A
C78          C93   1.467       .  A
C78          C86   1.389       .  A
C79          C91   1.425       .  A
C79          C87   1.387       .  A
C80          C94   1.433       .  A
C80          C88   1.391       .  A
C81          C89   1.375       .  A
C81          C92   1.375       .  A
C82          C90   1.388       .  A
C82          C93   1.398       .  A
C83          C84   1.372       .  A
C83          H95   1.082       .  S
C84          H96   1.083       .  S
C85          C86   1.411       .  A
C85          H97   1.082       .  S
C86          H98   1.082       .  S
C87          C88   1.359       .  A
C87          H99   1.082       .  S
C88         H100   1.083       .  S
C89          C90   1.373       .  A
C89         H101   1.080       .  S
C90         H102   1.082       .  S
C91        C3387   1.470       .  S
C92        C3443   1.476       .  S
C93         C359   1.533       .  S
C94         C408   1.531       .  S
N105        C110   1.349       .  A
N105        C109   1.344       .  A
N105        H137   1.039       .  S
N106        C113   1.358       .  A
N106        C114   1.355       .  A
N107        C112   1.374       .  A
N107        C111   1.367       .  A
N107        H138   1.036       .  S
N108        C115   1.339       .  A
N108        C116   1.336       .  A
C109        C117   1.386       .  A
C109        C125   1.400       .  A
C110        C126   1.405       .  A
C110        C118   1.387       .  A
C111        C119   1.389       .  A
C111        C128   1.457       .  A
C112        C127   1.462       .  A
C112        C120   1.390       .  A
C113        C125   1.417       .  A
C113        C121   1.384       .  A
C114        C128   1.422       .  A
C114        C122   1.389       .  A
C115        C123   1.381       .  A
C115        C126   1.383       .  A
C116        C124   1.393       .  A
C116        C127   1.400       .  A
C117        C118   1.371       .  A
C117        H129   1.082       .  S
C118        H130   1.082       .  S
C119        C120   1.406       .  A
C119        H131   1.082       .  S
C120        H132   1.082       .  S
C121        C122   1.355       .  A
C121        H133   1.081       .  S
C122        H134   1.081       .  S
C123        C124   1.368       .  A
C123        H135   1.083   1_565  S
C124        H136   1.083   1_565  S
C125       C3429   1.480       .  S
C126       C3485   1.464       .  S
C127        C730   1.530       .  S
C128        C454   1.528       .  S
N139        C144   1.347       .  A
N139        C143   1.345       .  A
N139        H171   1.045       .  S
N140        C147   1.350       .  A
N140        C148   1.348       .  A
N141        C146   1.372       .  A
N141        C145   1.370       .  A
N141        H172   1.041       .  S
N142        C149   1.350       .  A
N142        C150   1.343       .  A
C143        C151   1.388       .  A
C143        C159   1.403       .  A
C144        C160   1.403       .  A
C144        C152   1.386       .  A
C145        C153   1.392       .  A
C145        C162   1.465       .  A
C146        C161   1.463       .  A
C146        C154   1.390       .  A
C147        C159   1.400       .  A
C147        C155   1.382       .  A
C148        C162   1.417       .  A
C148        C156   1.392       .  A
C149        C157   1.379   1_565  A
C149        C160   1.393       .  A
C150        C158   1.380       .  A
C150        C161   1.404       .  A
C151        C152   1.382       .  A
C151        H163   1.082       .  S
C152        H164   1.082       .  S
C153        C154   1.413       .  A
C153        H165   1.082       .  S
C154        H166   1.082       .  S
C155        C156   1.372       .  A
C155        H167   1.083       .  S
C156        H168   1.082       .  S
C157        C158   1.373   1_545  A
C157        H169   1.082       .  S
C158        H170   1.076   1_565  S
C159       C3527   1.478       .  S
C160       C3373   1.479       .  S
C161       C1256   1.551       .  S
C162        C433   1.540       .  S
N173        C178   1.336       .  A
N173        C177   1.345       .  A
N173        H205   1.043       .  S
N174        C181   1.344       .  A
N174        C182   1.335       .  A
N175        C180   1.363       .  A
N175        C179   1.367       .  A
N175        H206   1.041       .  S
N176        C183   1.349       .  A
N176        C184   1.351       .  A
C177        C185   1.388       .  A
C177        C193   1.401       .  A
C178        C194   1.386       .  A
C178        C186   1.385       .  A
C179        C187   1.390       .  A
C179        C196   1.450       .  A
C180        C195   1.446       .  A
C180        C188   1.388       .  A
C181        C193   1.394       .  A
C181        C189   1.375       .  A
C182        C196   1.399       .  A
C182        C190   1.392       .  A
C183        C191   1.385       .  A
C183        C194   1.404       .  A
C184        C192   1.391       .  A
C184        C195   1.412       .  A
C185        C186   1.374       .  A
C185        H197   1.082       .  S
C186        H198   1.083       .  S
C187        C188   1.406       .  A
C187        H199   1.082       .  S
C188        H200   1.082       .  S
C189        C190   1.372       .  A
C189        H201   1.075       .  S
C190        H202   1.083       .  S
C191        C192   1.364       .  A
C191        H203   1.082       .  S
C192        H204   1.082       .  S
C193       C3499   1.471       .  S
C194       C3415   1.450       .  S
C195        C368   1.512       .  S
C196       C1233   1.515       .  S
N207        C212   1.350       .  A
N207        C211   1.349       .  A
N207        H239   1.042       .  S
N208        C215   1.356       .  A
N208        C216   1.352       .  A
N209        C214   1.372       .  A
N209        C213   1.372       .  A
N209        H240   1.039       .  S
N210        C217   1.354       .  A
N210        C218   1.351       .  A
C211        C219   1.388       .  A
C211        C227   1.407       .  A
C212        C228   1.404       .  A
C212        C220   1.385       .  A
C213        C221   1.389       .  A
C213        C230   1.459       .  A
C214        C229   1.460       .  A
C214        C222   1.390       .  A
C215        C227   1.406       .  A
C215        C223   1.379       .  A
C216        C230   1.425       .  A
C216        C224   1.394       .  A
C217        C225   1.377       .  A
C217        C228   1.398       .  A
C218        C226   1.396       .  A
C218        C229   1.425       .  A
C219        C220   1.375       .  A
C219        H231   1.082       .  S
C220        H232   1.082       .  S
C221        C222   1.404       .  A
C221        H233   1.082       .  S
C222        H234   1.082       .  S
C223        C224   1.360       .  A
C223        H235   1.083       .  S
C224        H236   1.077       .  S
C225        C226   1.365       .  A
C225        H237   1.082       .  S
C226        H238   1.082       .  S
C227       C3513   1.482       .  S
C228       C3471   1.481       .  S
C229        C474   1.540       .  S
C230        C337   1.528       .  S
N241        C246   1.349       .  A
N241        C245   1.342       .  A
N241        H273   1.041       .  S
N242        C249   1.355       .  A
N242        C250   1.355       .  A
N243        C248   1.369       .  A
N243        C247   1.360       .  A
N243        H274   1.041       .  S
N244        C251   1.337       .  A
N244        C252   1.331       .  A
C245        C253   1.387       .  A
C245        C261   1.402       .  A
C246        C262   1.409       .  A
C246        C254   1.387       .  A
C247        C255   1.389       .  A
C247        C264   1.446       .  A
C248        C263   1.452       .  A
C248        C256   1.389       .  A
C249        C261   1.416       .  A
C249        C257   1.387       .  A
C250        C264   1.415       .  A
C250        C258   1.387       .  A
C251        C259   1.381       .  A
C251        C262   1.388       .  A
C252        C260   1.392       .  A
C252        C263   1.394       .  A
C253        C254   1.380       .  A
C253        H265   1.082       .  S
C254        H266   1.083       .  S
C255        C256   1.408       .  A
C255        H267   1.082       .  S
C256        H268   1.082       .  S
C257        C258   1.367       .  A
C257        H269   1.082       .  S
C258        H270   1.081       .  S
C259        C260   1.376       .  A
C259        H271   1.082   1_655  S
C260        H272   1.083       .  S
C261       C3457   1.474       .  S
C262       C3401   1.464       .  S
C263       C1963   1.526       .  S
C264        C749   1.517       .  S
O275        C291   1.277       .  A
O275       Zn281   2.058       .  S
C276        O292   1.278       .  A
C276        O289   1.284       .  A
C276       C1514   1.533       .  S
O277        C290   1.279       .  A
O277       Cd284   2.135       .  S
O278        C296   1.300       .  A
O278       Cd287   2.185       .  S
O279        C293   1.289       .  A
O279       Cd283   2.179       .  S
O280        C291   1.290       .  A
O280       Cd283   2.196       .  S
Zn281       O292   2.060       .  S
Zn281       O294   2.101       .  S
Zn281       O286   1.950       .  S
O282        C293   1.287       .  A
O282       Cd287   2.137       .  S
Cd283       O285   2.209       .  S
Cd283       O286   2.057       .  S
Cd284       O288   2.118       .  S
Cd284       O297   2.145       .  S
Cd284       O286   2.140       .  S
O285        C295   1.305       .  A
O286       Cd287   2.044       .  S
Cd287       O289   2.188       .  S
O288        C295   1.274       .  A
C290        O294   1.293       .  A
C290        C511   1.527       .  S
C291       C1065   1.526       .  S
C293       C1993   1.525       .  S
C295        C904   1.536       .  S
C296        O297   1.280       .  A
C296       C1794   1.552       .  S
O298        C314   1.288       .  A
O298       Zn304   2.150       .  S
C299        O315   1.285       .  A
C299        O312   1.282       .  A
C299       C2040   1.518       .  S
O300        C313   1.277       .  A
O300       Cd307   2.133       .  S
O301        C319   1.302       .  A
O301       Cd310   2.183       .  S
O302        C316   1.283       .  A
O302       Cd306   2.141       .  S
O303        C314   1.284       .  A
O303       Cd306   2.158       .  S
Zn304       O315   2.064       .  S
Zn304       O317   2.149       .  S
Zn304       O309   1.973       .  S
O305        C316   1.285       .  A
O305       Cd310   2.138       .  S
Cd306       O308   2.171       .  S
Cd306       O309   2.035       .  S
Cd307       O311   2.131       .  S
Cd307       O320   2.137       .  S
Cd307       O309   2.149       .  S
O308        C318   1.300       .  A
O309       Cd310   2.041       .  S
Cd310       O312   2.170       .  S
O311        C318   1.278       .  A
C313        O317   1.300       .  A
C313        C664   1.534       .  S
C314       C1333   1.537       .  S
C316       C1600   1.513       .  S
C318        C870   1.538       .  S
C319        O320   1.277       .  A
C319       C1795   1.540       .  S
O321        C337   1.283       .  A
O321       Zn327   2.096       .  S
C322        O338   1.280       .  A
C322        O335   1.284       .  A
C322        C802   1.513       .  S
O323        C336   1.281       .  A
O323       Cd330   2.150       .  S
O324        C342   1.305       .  A
O324       Cd333   2.228       .  S
O325        C339   1.286       .  A
O325       Cd329   2.172       .  S
O326        C337   1.283       .  A
O326       Cd329   2.165       .  S
Zn327       O338   2.077       .  S
Zn327       O340   2.112       .  S
Zn327       O332   1.969       .  S
O328        C339   1.293       .  A
O328       Cd333   2.180       .  S
Cd329       O331   2.168       .  S
Cd329       O332   2.045       .  S
Cd330       O334   2.153       .  S
Cd330       O343   2.148       .  S
Cd330       O332   2.137       .  S
O331        C341   1.300       .  A
O332       Cd333   2.046       .  S
Cd333       O335   2.151       .  S
O334        C341   1.281       .  A
C336        O340   1.292       .  A
C336       C1133   1.541       .  S
C339        C631   1.534       .  S
C341       C1406   1.536       .  S
C342        O343   1.282       .  A
C342       C1561   1.557       .  S
O344        C360   1.285       .  A
O344       Zn350   2.117       .  S
C345        O361   1.282       .  A
C345        O358   1.285       .  A
C345       C2147   1.522       .  S
O346        C359   1.276       .  A
O346       Cd353   2.126       .  S
O347        C365   1.298       .  A
O347       Cd356   2.175       .  S
O348        C362   1.279       .  A
O348       Cd352   2.154       .  S
O349        C360   1.282       .  A
O349       Cd352   2.132   1_556  S
Zn350       O361   2.066   1_556  S
Zn350       O363   2.183       .  S
Zn350       O355   1.980   1_556  S
O351        C362   1.289       .  A
O351       Cd356   2.133       .  S
Cd352       O354   2.158   1_554  S
Cd352       O355   2.043       .  S
Cd353       O357   2.118       .  S
Cd353       O366   2.100   1_556  S
Cd353       O355   2.123   1_556  S
O354        C364   1.296       .  A
O355       Cd356   2.031       .  S
Cd356       O358   2.170       .  S
O357        C364   1.276       .  A
C359        O363   1.303       .  A
C360       C1703   1.515       .  S
C362       C1064   1.520       .  S
C364        C803   1.522       .  S
C365        O366   1.274       .  A
C365        C584   1.519       .  S
O367        C383   1.273   1_655  A
O367       Zn373   2.055       .  S
C368        O384   1.275       .  A
C368        O381   1.286       .  A
O369        C382   1.280   1_554  A
O369       Cd376   2.150       .  S
O370        C388   1.301       .  A
O370       Cd379   2.189       .  S
O371        C385   1.288       .  A
O371       Cd375   2.161       .  S
O372        C383   1.288       .  A
O372       Cd375   2.193   1_456  S
Zn373       O384   2.034       .  S
Zn373       O386   2.123   1_655  S
Zn373       O378   1.944   1_556  S
O374        C385   1.287       .  A
O374       Cd379   2.155       .  S
Cd375       O377   2.194   1_655  S
Cd375       O378   2.051       .  S
Cd376       O380   2.135       .  S
Cd376       O389   2.138   1_455  S
Cd376       O378   2.130   1_455  S
O377        C387   1.303       .  A
O378       Cd379   2.048       .  S
Cd379       O381   2.173   1_554  S
O380        C387   1.279       .  A
C382        O386   1.295       .  A
C382       C1702   1.545       .  S
C383        C973   1.523       .  S
C385       C1863   1.523       .  S
C387       C1994   1.536       .  S
C388        O389   1.280       .  A
C388       C1166   1.537       .  S
O390        C406   1.284       .  A
O390       Zn396   2.107       .  S
C391        O407   1.290       .  A
C391        O404   1.273       .  A
C391        C630   1.530       .  S
O392        C405   1.279       .  A
O392       Cd399   2.160       .  S
O393        C411   1.294       .  A
O393       Cd402   2.139       .  S
O394        C408   1.291       .  A
O394       Cd398   2.225   1_565  S
O395        C406   1.290       .  A
O395       Cd398   2.156       .  S
Zn396       O407   2.182   1_545  S
Zn396       O409   2.156       .  S
Zn396       O401   2.011       .  S
O397        C408   1.273       .  A
O397       Cd402   2.068       .  S
Cd398       O400   2.203       .  S
Cd398       O401   2.046       .  S
Cd399       O403   2.133       .  S
Cd399       O412   2.144       .  S
Cd399       O401   2.151       .  S
O400        C410   1.305       .  A
O401       Cd402   1.987   1_545  S
Cd402       O404   2.095       .  S
O403        C410   1.279       .  A
C405        O409   1.302       .  A
C405       C1332   1.553       .  S
C406        C938   1.520       .  S
C410       C2114   1.537       .  S
C411        O412   1.279   1_565  A
C411       C1668   1.538       .  S
O413        C429   1.288       .  A
O413       Zn419   2.155       .  S
C414        O430   1.286       .  A
C414        O427   1.280       .  A
C414       C1012   1.510       .  S
O415        C428   1.278       .  A
O415       Cd422   2.136       .  S
O416        C434   1.296       .  A
O416       Cd425   2.194       .  S
O417        C431   1.283       .  A
O417       Cd421   2.154       .  S
O418        C429   1.288       .  A
O418       Cd421   2.151       .  S
Zn419       O430   2.119       .  S
Zn419       O432   2.178       .  S
Zn419       O424   2.011       .  S
O420        C431   1.284       .  A
O420       Cd425   2.142       .  S
Cd421       O423   2.199       .  S
Cd421       O424   2.044       .  S
Cd422       O426   2.145       .  S
Cd422       O435   2.160       .  S
Cd422       O424   2.133       .  S
O423        C433   1.303       .  A
O424       Cd425   2.027       .  S
Cd425       O427   2.109       .  S
O426        C433   1.282       .  A
C428        O432   1.304       .  A
C428       C1897   1.536       .  S
C429       C1634   1.534       .  S
C431       C1407   1.522       .  S
C434        O435   1.282       .  A
C434        C550   1.558       .  S
O436        C452   1.283       .  A
O436       Zn442   2.087       .  S
C437        O453   1.283       .  A
C437        O450   1.285       .  A
C437       C1896   1.529       .  S
O438        C451   1.279       .  A
O438       Cd445   2.146       .  S
O439        C457   1.303       .  A
O439       Cd448   2.199       .  S
O440        C454   1.287       .  A
O440       Cd444   2.154   1_655  S
O441        C452   1.284       .  A
O441       Cd444   2.164       .  S
Zn442       O453   2.080   1_455  S
Zn442       O455   2.156       .  S
Zn442       O447   1.964   1_455  S
O443        C454   1.290       .  A
O443       Cd448   2.171       .  S
Cd444       O446   2.190       .  S
Cd444       O447   2.044   1_455  S
Cd445       O449   2.132       .  S
Cd445       O458   2.111   1_455  S
Cd445       O447   2.131   1_455  S
O446        C456   1.302       .  A
O447       Cd448   2.064       .  S
Cd448       O450   2.185       .  S
O449        C456   1.278       .  A
C451        O455   1.299       .  A
C451       C1515   1.549       .  S
C452        C699   1.524       .  S
C456       C2148   1.536       .  S
C457        O458   1.277       .  A
C457       C1167   1.525       .  S
O459        C475   1.274       .  A
O459       Zn465   2.043   1_545  S
C460        O476   1.276       .  A
C460        O473   1.287       .  A
C460       C1201   1.510       .  S
O461        C474   1.279       .  A
O461       Cd468   2.147       .  S
O462        C480   1.300       .  A
O462       Cd471   2.186       .  S
O463        C477   1.288       .  A
O463       Cd467   2.167   1_554  S
O464        C475   1.287       .  A
O464       Cd467   2.195       .  S
Zn465       O476   2.043   1_556  S
Zn465       O478   2.103       .  S
Zn465       O470   1.943       .  S
O466        C477   1.290       .  A
O466       Cd471   2.182   1_545  S
Cd467       O469   2.159       .  S
Cd467       O470   2.049   1_545  S
Cd468       O472   2.122       .  S
Cd468       O481   2.125       .  S
Cd468       O470   2.127       .  S
O469        C479   1.298       .  A
O470       Cd471   2.048   1_556  S
Cd471       O473   2.166       .  S
O472        C479   1.278   1_565  A
C474        O478   1.291       .  A
C475       C1474   1.529       .  S
C477       C2079   1.535       .  S
C479        C939   1.516       .  S
C480        O481   1.277   1_554  A
C480        C585   1.530       .  S
C482       C3328   1.468       .  S
C482        N483   1.347       .  A
C482        N487   1.349       .  A
N483        C484   1.354       .  A
C484       C3359   1.492       .  S
C484        N485   1.367       .  A
N485        C486   1.369       .  A
C486       C3345   1.477       .  S
C486        N487   1.361       .  A
N488        C493   1.341       .  A
N488        C492   1.348       .  A
N488        H520   1.042       .  S
N489        C496   1.353       .  A
N489        C497   1.344       .  A
N490        C495   1.366       .  A
N490        C494   1.367       .  A
N490        H521   1.039       .  S
N491        C498   1.349       .  A
N491        C499   1.349       .  A
C492        C500   1.387       .  A
C492        C508   1.402       .  A
C493        C509   1.397       .  A
C493        C501   1.388       .  A
C494        C502   1.390       .  A
C494        C511   1.452       .  A
C495        C510   1.448       .  A
C495        C503   1.388       .  A
C496        C508   1.404       .  A
C496        C504   1.376       .  A
C497        C511   1.414       .  A
C497        C505   1.390       .  A
C498        C506   1.380       .  A
C498        C509   1.396       .  A
C499        C507   1.395       .  A
C499        C510   1.416       .  A
C500        C501   1.373       .  A
C500        H512   1.082       .  S
C501        H513   1.082       .  S
C502        C503   1.403       .  A
C502        H514   1.081       .  S
C503        H515   1.081       .  S
C504        C505   1.374       .  A
C504        H516   1.079       .  S
C505        H517   1.082       .  S
C506        C507   1.362       .  A
C506        H518   1.083       .  S
C507        H519   1.082       .  S
C508       C3342   1.490       .  S
C509       C3314   1.456       .  S
C522       C3272   1.476       .  S
C522        N523   1.357   1_565  A
C522        N527   1.363       .  A
N523        C524   1.355       .  A
C524       C3303   1.469       .  S
C524        N525   1.346       .  A
N525        C526   1.349       .  A
C526       C3286   1.463       .  S
C526        N527   1.366   1_545  A
N528        C533   1.340       .  A
N528        C532   1.353       .  A
N528        H560   1.043       .  S
N529        C536   1.344       .  A
N529        C537   1.331       .  A
N530        C535   1.369       .  A
N530        C534   1.370       .  A
N530        H561   1.042       .  S
N531        C538   1.354       .  A
N531        C539   1.361       .  A
C532        C540   1.388       .  A
C532        C548   1.413       .  A
C533        C549   1.399       .  A
C533        C541   1.387       .  A
C534        C542   1.389       .  A
C534        C551   1.455       .  A
C535        C550   1.458       .  A
C535        C543   1.390       .  A
C536        C548   1.396       .  A
C536        C544   1.381       .  A
C537        C551   1.399       .  A
C537        C545   1.392       .  A
C538        C546   1.380       .  A
C538        C549   1.413       .  A
C539        C547   1.391       .  A
C539        C550   1.433       .  A
C540        C541   1.377       .  A
C540        H552   1.082       .  S
C541        H553   1.083       .  S
C542        C543   1.407       .  A
C542        H554   1.082       .  S
C543        H555   1.082       .  S
C544        C545   1.379       .  A
C544        H556   1.083       .  S
C545        H557   1.081       .  S
C546        C547   1.367       .  A
C546        H558   1.083       .  S
C547        H559   1.073       .  S
C548       C3275   1.480       .  S
C549       C3258   1.467       .  S
C551        C731   1.527       .  S
N562        C567   1.346       .  A
N562        C566   1.345       .  A
N562        H594   1.043       .  S
N563        C570   1.345       .  A
N563        C571   1.344       .  A
N564        C569   1.364       .  A
N564        C568   1.369       .  A
N564        H595   1.041       .  S
N565        C572   1.350       .  A
N565        C573   1.344       .  A
C566        C574   1.386       .  A
C566        C582   1.401       .  A
C567        C583   1.403       .  A
C567        C575   1.387       .  A
C568        C576   1.390       .  A
C568        C585   1.455       .  A
C569        C584   1.454       .  A
C569        C577   1.391       .  A
C570        C582   1.391       .  A
C570        C578   1.377   1_565  A
C571        C585   1.408       .  A
C571        C579   1.390       .  A
C572        C580   1.380       .  A
C572        C583   1.393       .  A
C573        C581   1.393       .  A
C573        C584   1.412       .  A
C574        C575   1.380       .  A
C574        H586   1.082       .  S
C575        H587   1.082       .  S
C576        C577   1.409       .  A
C576        H588   1.082       .  S
C577        H589   1.082       .  S
C578        C579   1.368   1_545  A
C578        H590   1.077       .  S
C579        H591   1.083   1_565  S
C580        C581   1.371       .  A
C580        H592   1.081       .  S
C581        H593   1.083       .  S
C582       C3289   1.472       .  S
C583       C3356   1.476       .  S
C596       C3244   1.456       .  S
C596        N597   1.346       .  A
C596        N601   1.353   1_565  A
N597        C598   1.352       .  A
C598       C3216   1.465       .  S
C598        N599   1.357   1_565  A
N599        C600   1.357       .  A
C600       C3230   1.466       .  S
C600        N601   1.361       .  A
C602       C3202   1.455       .  S
C602        N603   1.358       .  A
C602        N607   1.353       .  A
N603        C604   1.355       .  A
C604       C3317   1.469       .  S
C604        N605   1.355       .  A
N605        C606   1.346       .  A
C606       C3261   1.469       .  S
C606        N607   1.348       .  A
N608        C613   1.346       .  A
N608        C612   1.339       .  A
N608        H640   1.042       .  S
N609        C616   1.352       .  A
N609        C617   1.353       .  A
N610        C615   1.374       .  A
N610        C614   1.368       .  A
N610        H641   1.041       .  S
N611        C618   1.340       .  A
N611        C619   1.331       .  A
C612        C620   1.390       .  A
C612        C628   1.397       .  A
C613        C629   1.399       .  A
C613        C621   1.384       .  A
C614        C622   1.391       .  A
C614        C631   1.464       .  A
C615        C630   1.465       .  A
C615        C623   1.391       .  A
C616        C628   1.407       .  A
C616        C624   1.384       .  A
C617        C631   1.413       .  A
C617        C625   1.391       .  A
C618        C626   1.380       .  A
C618        C629   1.384       .  A
C619        C627   1.396       .  A
C619        C630   1.396       .  A
C620        C621   1.380       .  A
C620        H632   1.082       .  S
C621        H633   1.083       .  S
C622        C623   1.415       .  A
C622        H634   1.082       .  S
C623        H635   1.082       .  S
C624        C625   1.362       .  A
C624        H636   1.082       .  S
C625        H637   1.081       .  S
C626        C627   1.369       .  A
C626        H638   1.083       .  S
C627        H639   1.081       .  S
C628       C3205   1.458       .  S
C629       C3219   1.456       .  S
N642        C647   1.350       .  A
N642        C646   1.346       .  A
N642        H674   1.040       .  S
N643        C650   1.359       .  A
N643        C651   1.357       .  A
N644        C649   1.373       .  A
N644        C648   1.364       .  A
N644        H675   1.037       .  S
N645        C652   1.343       .  A
N645        C653   1.339       .  A
C646        C654   1.388       .  A
C646        C662   1.403       .  A
C647        C663   1.404       .  A
C647        C655   1.385       .  A
C648        C656   1.390       .  A
C648        C665   1.454       .  A
C649        C664   1.457       .  A
C649        C657   1.389       .  A
C650        C662   1.417       .  A
C650        C658   1.384       .  A
C651        C665   1.425       .  A
C651        C659   1.389       .  A
C652        C660   1.381       .  A
C652        C663   1.387       .  A
C653        C661   1.388       .  A
C653        C664   1.400       .  A
C654        C655   1.371       .  A
C654        H666   1.082       .  S
C655        H667   1.082       .  S
C656        C657   1.406       .  A
C656        H668   1.082       .  S
C657        H669   1.082       .  S
C658        C659   1.360       .  A
C658        H670   1.082       .  S
C659        H671   1.082       .  S
C660        C661   1.370       .  A
C660        H672   1.082       .  S
C661        H673   1.081       .  S
C662       C3300   1.476       .  S
C663       C3233   1.469       .  S
N676        C681   1.345       .  A
N676        C680   1.344       .  A
N676        H708   1.042       .  S
N677        C684   1.345       .  A
N677        C685   1.340       .  A
N678        C683   1.364       .  A
N678        C682   1.367       .  A
N678        H709   1.042       .  S
N679        C686   1.351       .  A
N679        C687   1.350       .  A
C680        C688   1.387       .  A
C680        C696   1.405       .  A
C681        C697   1.404       .  A
C681        C689   1.387       .  A
C682        C690   1.389   1_455  A
C682        C699   1.451       .  A
C683        C698   1.453       .  A
C683        C691   1.391   1_455  A
C684        C696   1.394       .  A
C684        C692   1.381       .  A
C685        C699   1.397       .  A
C685        C693   1.382       .  A
C686        C694   1.381       .  A
C686        C697   1.402       .  A
C687        C695   1.391       .  A
C687        C698   1.416       .  A
C688        C689   1.384       .  A
C688        H700   1.082       .  S
C689        H701   1.082       .  S
C690        C691   1.410       .  A
C690        H702   1.082       .  S
C691        H703   1.081       .  S
C692        C693   1.374       .  A
C692        H704   1.082       .  S
C693        H705   1.077       .  S
C694        C695   1.369       .  A
C694        H706   1.083       .  S
C695        H707   1.083       .  S
C696       C3331   1.469       .  S
C697       C3247   1.481       .  S
C698       C1250   1.535       .  S
O710        C726   1.285       .  A
O710       Zn716   2.099       .  S
C711        O727   1.282       .  A
C711        O724   1.274       .  A
C711       C1299   1.514       .  S
O712        C725   1.274       .  A
O712       Cd719   2.116   1_545  S
O713        C731   1.298       .  A
O713       Cd722   2.159       .  S
O714        C728   1.284       .  A
O714       Cd718   2.127   1_565  S
O715        C726   1.287       .  A
O715       Cd718   2.184       .  S
Zn716       O727   2.122       .  S
Zn716       O729   2.104       .  S
Zn716       O721   1.968       .  S
O717        C728   1.274       .  A
O717       Cd722   2.091       .  S
Cd718       O720   2.190   1_545  S
Cd718       O721   2.034       .  S
Cd719       O723   2.102       .  S
Cd719       O732   2.124       .  S
Cd719       O721   2.133   1_565  S
O720        C730   1.303       .  A
O721       Cd722   1.997   1_545  S
Cd722       O724   2.093   1_565  S
O723        C730   1.273       .  A
C725        O729   1.296       .  A
C725       C1930   1.527       .  S
C726       C2179   1.534       .  S
C728       C1200   1.496       .  S
C731        O732   1.276       .  A
O733        C749   1.277       .  A
O733       Zn739   2.066       .  S
C734        O750   1.281       .  A
C734        O747   1.285       .  A
C734       C1862   1.527       .  S
O735        C748   1.279       .  A
O735       Cd742   2.148       .  S
O736        C754   1.302       .  A
O736       Cd745   2.188   1_554  S
O737        C751   1.285       .  A
O737       Cd741   2.139       .  S
O738        C749   1.285       .  A
O738       Cd741   2.164       .  S
Zn739       O750   2.054   1_556  S
Zn739       O752   2.130   1_556  S
Zn739       O744   1.950       .  S
O740        C751   1.286       .  A
O740       Cd745   2.166       .  S
Cd741       O743   2.167       .  S
Cd741       O744   2.035       .  S
Cd742       O746   2.113   1_554  S
Cd742       O755   2.120       .  S
Cd742       O744   2.123   1_554  S
O743        C753   1.299       .  A
O744       Cd745   2.054       .  S
Cd745       O747   2.180   1_556  S
O746        C753   1.277       .  A
C748        O752   1.291       .  A
C748       C2180   1.548       .  S
C751        C836   1.524       .  S
C753       C1475   1.520       .  S
C754        O755   1.279       .  A
C754       C1098   1.529       .  S
C756       C3160   1.477       .  S
C756        N757   1.361       .  A
C756        N761   1.360       .  A
N757        C758   1.351       .  A
C758       C3174   1.460       .  S
C758        N759   1.346       .  A
N759        C760   1.353       .  A
C760       C3188   1.465       .  S
C760        N761   1.361       .  A
C762       C3118   1.483       .  S
C762        N763   1.358       .  A
C762        N767   1.360       .  A
N763        C764   1.350       .  A
C764       C3132   1.469   1_556  S
C764        N765   1.348       .  A
N765        C766   1.355       .  A
C766       C3146   1.466       .  S
C766        N767   1.363       .  A
C768       C3104   1.479       .  S
C768        N769   1.361       .  A
C768        N773   1.350       .  A
N769        C770   1.360       .  A
C770       C3090   1.464       .  S
C770        N771   1.361       .  A
N771        C772   1.349       .  A
C772       C3076   1.472       .  S
C772        N773   1.345       .  A
C774       C3048   1.459   1_554  S
C774        N775   1.353       .  A
C774        N779   1.348       .  A
N775        C776   1.356       .  A
C776       C3062   1.479       .  S
C776        N777   1.365       .  A
N777        C778   1.354       .  A
C778       C3034   1.472       .  S
C778        N779   1.351       .  A
N780        C785   1.343       .  A
N780        C784   1.349       .  A
N780        H812   1.042       .  S
N781        C788   1.342       .  A
N781        C789   1.336       .  A
N782        C787   1.359       .  A
N782        C786   1.367       .  A
N782        H813   1.041       .  S
N783        C790   1.354       .  A
N783        C791   1.355       .  A
C784        C792   1.386       .  A
C784        C800   1.408       .  A
C785        C801   1.402       .  A
C785        C793   1.387       .  A
C786        C794   1.390       .  A
C786        C803   1.449       .  A
C787        C802   1.443       .  A
C787        C795   1.389       .  A
C788        C800   1.395       .  A
C788        C796   1.384       .  A
C789        C803   1.398       .  A
C789        C797   1.389       .  A
C790        C798   1.386       .  A
C790        C801   1.414       .  A
C791        C799   1.389       .  A
C791        C802   1.416       .  A
C792        C793   1.382       .  A
C792        H804   1.082       .  S
C793        H805   1.082       .  S
C794        C795   1.406       .  A
C794        H806   1.082       .  S
C795        H807   1.082       .  S
C796        C797   1.374       .  A
C796        H808   1.082   1_556  S
C797        H809   1.083   1_556  S
C798        C799   1.365       .  A
C798        H810   1.082       .  S
C799        H811   1.082       .  S
C800       C3037   1.472       .  S
C801       C3093   1.479       .  S
N814        C819   1.341       .  A
N814        C818   1.346       .  A
N814        H846   1.041       .  S
N815        C822   1.341       .  A
N815        C823   1.334       .  A
N816        C821   1.364       .  A
N816        C820   1.374       .  A
N816        H847   1.040       .  S
N817        C824   1.357       .  A
N817        C825   1.354       .  A
C818        C826   1.387       .  A
C818        C834   1.403       .  A
C819        C835   1.397       .  A
C819        C827   1.387       .  A
C820        C828   1.390       .  A
C820        C837   1.460       .  A
C821        C836   1.454       .  A
C821        C829   1.390       .  A
C822        C834   1.388       .  A
C822        C830   1.381       .  A
C823        C837   1.397       .  A
C823        C831   1.390       .  A
C824        C832   1.383       .  A
C824        C835   1.413       .  A
C825        C833   1.390       .  A
C825        C836   1.422       .  A
C826        C827   1.378       .  A
C826        H838   1.082       .  S
C827        H839   1.082       .  S
C828        C829   1.408       .  A
C828        H840   1.082       .  S
C829        H841   1.082       .  S
C830        C831   1.369       .  A
C830        H842   1.083       .  S
C831        H843   1.078       .  S
C832        C833   1.363       .  A
C832        H844   1.082       .  S
C833        H845   1.080       .  S
C834       C3079   1.463       .  S
C835       C3121   1.475       .  S
C837       C1232   1.533       .  S
N848        C853   1.343       .  A
N848        C852   1.339       .  A
N848        H880   1.038       .  S
N849        C856   1.356       .  A
N849        C857   1.352       .  A
N850        C855   1.373       .  A
N850        C854   1.368       .  A
N850        H881   1.039       .  S
N851        C858   1.347       .  A
N851        C859   1.341       .  A
C852        C860   1.386       .  A
C852        C868   1.393       .  A
C853        C869   1.399       .  A
C853        C861   1.386       .  A
C854        C862   1.389       .  A
C854        C871   1.456       .  A
C855        C870   1.461       .  A
C855        C863   1.391       .  A
C856        C868   1.407       .  A
C856        C864   1.382       .  A
C857        C871   1.419       .  A
C857        C865   1.392       .  A
C858        C866   1.384       .  A
C858        C869   1.400       .  A
C859        C867   1.388       .  A
C859        C870   1.399       .  A
C860        C861   1.379       .  A
C860        H872   1.082       .  S
C861        H873   1.082       .  S
C862        C863   1.407       .  A
C862        H874   1.082       .  S
C863        H875   1.081       .  S
C864        C865   1.355       .  A
C864        H876   1.081       .  S
C865        H877   1.080       .  S
C866        C867   1.373       .  A
C866        H878   1.082       .  S
C867        H879   1.083       .  S
C868       C3107   1.470       .  S
C869       C3177   1.467       .  S
N882        C887   1.350       .  A
N882        C886   1.344       .  A
N882        H914   1.040       .  S
N883        C890   1.356       .  A
N883        C891   1.356       .  A
N884        C889   1.375       .  A
N884        C888   1.366       .  A
N884        H915   1.040       .  S
N885        C892   1.339       .  A
N885        C893   1.334       .  A
C886        C894   1.386       .  A
C886        C902   1.399       .  A
C887        C903   1.406       .  A
C887        C895   1.386       .  A
C888        C896   1.390       .  A
C888        C905   1.457       .  A
C889        C904   1.462       .  A
C889        C897   1.390       .  A
C890        C902   1.411       .  A
C890        C898   1.383       .  A
C891        C905   1.420       .  A
C891        C899   1.388       .  A
C892        C900   1.385       .  A
C892        C903   1.389       .  A
C893        C901   1.390       .  A
C893        C904   1.396       .  A
C894        C895   1.375       .  A
C894        H906   1.082       .  S
C895        H907   1.083       .  S
C896        C897   1.410       .  A
C896        H908   1.082       .  S
C897        H909   1.082       .  S
C898        C899   1.359       .  A
C898        H910   1.082       .  S
C899        H911   1.079       .  S
C900        C901   1.372       .  A
C900        H912   1.083       .  S
C901        H913   1.083       .  S
C902       C3135   1.469       .  S
C903       C3065   1.469       .  S
N916        C921   1.343       .  A
N916        C920   1.348       .  A
N916        H948   1.051       .  S
N917        C924   1.339       .  A
N917        C925   1.340       .  A
N918        C923   1.357       .  A
N918        C922   1.363       .  A
N918        H949   1.051       .  S
N919        C926   1.354       .  A
N919        C927   1.355       .  A
C920        C928   1.377       .  A
C920        C936   1.404       .  A
C921        C937   1.414       .  A
C921        C929   1.393       .  A
C922        C930   1.387       .  A
C922        C939   1.447       .  A
C923        C938   1.454       .  A
C923        C931   1.394       .  A
C924        C936   1.381       .  A
C924        C932   1.377       .  A
C925        C939   1.388       .  A
C925        C933   1.383       .  A
C926        C934   1.387       .  A
C926        C937   1.423       .  A
C927        C935   1.387       .  A
C927        C938   1.425       .  A
C928        C929   1.377       .  A
C928        H940   1.077       .  S
C929        H941   1.082       .  S
C930        C931   1.411       .  A
C930        H942   1.082   1_545  S
C931        H943   1.082   1_545  S
C932        C933   1.369       .  A
C932        H944   1.075       .  S
C933        H945   1.082       .  S
C934        C935   1.368       .  A
C934        H946   1.082       .  S
C935        H947   1.082       .  S
C936       C3149   1.470       .  S
C937       C3163   1.475       .  S
N950        C955   1.335       .  A
N950        C954   1.343       .  A
N950        H982   1.041       .  S
N951        C958   1.346       .  A
N951        C959   1.341       .  A
N952        C957   1.368       .  A
N952        C956   1.370       .  A
N952        H983   1.041       .  S
N953        C960   1.350       .  A
N953        C961   1.347       .  A
C954        C962   1.384       .  A
C954        C970   1.394       .  A
C955        C971   1.397       .  A
C955        C963   1.389       .  A
C956        C964   1.390   1_455  A
C956        C973   1.458       .  A
C957        C972   1.461       .  A
C957        C965   1.392   1_455  A
C958        C970   1.388       .  A
C958        C966   1.374       .  A
C959        C973   1.407       .  A
C959        C967   1.398       .  A
C960        C968   1.380       .  A
C960        C971   1.398       .  A
C961        C969   1.392       .  A
C961        C972   1.415       .  A
C962        C963   1.380       .  A
C962        H974   1.082       .  S
C963        H975   1.082       .  S
C964        C965   1.411       .  A
C964        H976   1.082       .  S
C965        H977   1.082       .  S
C966        C967   1.362       .  A
C966        H978   1.080       .  S
C967        H979   1.078       .  S
C968        C969   1.371       .  A
C968        H980   1.083       .  S
C969        H981   1.081       .  S
C970       C3051   1.473       .  S
C971       C3191   1.460       .  S
C972       C1962   1.537       .  S
C984       C3020   1.470       .  S
C984        N985   1.360       .  A
C984        N989   1.361       .  A
N985        C986   1.349       .  A
C986       C2992   1.462       .  S
C986        N987   1.346       .  A
N987        C988   1.347       .  A
C988       C3006   1.484       .  S
C988        N989   1.365       .  A
N990        C995   1.346       .  A
N990        C994   1.341       .  A
N990       H1022   1.042       .  S
N991        C998   1.354       .  A
N991        C999   1.355       .  A
N992        C997   1.366       .  A
N992        C996   1.361       .  A
N992       H1023   1.043       .  S
N993       C1000   1.340       .  A
N993       C1001   1.335       .  A
C994       C1002   1.388       .  A
C994       C1010   1.402       .  A
C995       C1011   1.404       .  A
C995       C1003   1.386       .  A
C996       C1004   1.392       .  A
C996       C1013   1.448       .  A
C997       C1012   1.445       .  A
C997       C1005   1.387       .  A
C998       C1010   1.412       .  A
C998       C1006   1.382       .  A
C999       C1013   1.424       .  A
C999       C1007   1.391       .  A
C1000      C1008   1.382       .  A
C1000      C1011   1.389       .  A
C1001      C1009   1.388       .  A
C1001      C1012   1.392       .  A
C1002      C1003   1.385       .  A
C1002      H1014   1.082       .  S
C1003      H1015   1.082       .  S
C1004      C1005   1.406       .  A
C1004      H1016   1.081       .  S
C1005      H1017   1.082       .  S
C1006      C1007   1.368       .  A
C1006      H1018   1.083       .  S
C1007      H1019   1.081       .  S
C1008      C1009   1.369       .  A
C1008      H1020   1.083       .  S
C1009      H1021   1.076       .  S
C1010      C2978   1.482       .  S
C1011      C2995   1.465       .  S
C1024      C2964   1.453   1_554  S
C1024      N1025   1.351       .  A
C1024      N1029   1.347       .  A
N1025      C1026   1.350       .  A
C1026      C2936   1.480       .  S
C1026      N1027   1.360       .  A
N1027      C1028   1.358       .  A
C1028      C2950   1.480       .  S
C1028      N1029   1.360       .  A
C1030      C2894   1.485       .  S
C1030      N1031   1.358       .  A
C1030      N1035   1.365       .  A
N1031      C1032   1.348       .  A
C1032      C2908   1.457       .  S
C1032      N1033   1.347       .  A
N1033      C1034   1.354       .  A
C1034      C2922   1.473   1_554  S
C1034      N1035   1.364       .  A
C1036      C2880   1.477       .  S
C1036      N1037   1.350       .  A
C1036      N1041   1.363       .  A
N1037      C1038   1.353       .  A
C1038      C2869   1.461       .  S
C1038      N1039   1.346       .  A
N1039      C1040   1.356       .  A
C1040      C2981   1.463       .  S
C1040      N1041   1.358       .  A
N1042      C1047   1.351       .  A
N1042      C1046   1.341       .  A
N1042      H1074   1.037       .  S
N1043      C1050   1.352       .  A
N1043      C1051   1.354       .  A
N1044      C1049   1.366       .  A
N1044      C1048   1.365       .  A
N1044      H1075   1.036       .  S
N1045      C1052   1.347       .  A
N1045      C1053   1.347       .  A
C1046      C1054   1.392       .  A
C1046      C1062   1.412       .  A
C1047      C1063   1.407       .  A
C1047      C1055   1.383       .  A
C1048      C1056   1.394       .  A
C1048      C1065   1.461       .  A
C1049      C1064   1.453       .  A
C1049      C1057   1.387       .  A
C1050      C1062   1.422       .  A
C1050      C1058   1.388       .  A
C1051      C1065   1.421       .  A
C1051      C1059   1.388       .  A
C1052      C1060   1.387       .  A
C1052      C1063   1.400       .  A
C1053      C1061   1.381       .  A
C1053      C1064   1.392       .  A
C1054      C1055   1.379       .  A
C1054      H1066   1.082       .  S
C1055      H1067   1.082       .  S
C1056      C1057   1.412       .  A
C1056      H1068   1.082       .  S
C1057      H1069   1.082       .  S
C1058      C1059   1.365       .  A
C1058      H1070   1.082       .  S
C1059      H1071   1.082       .  S
C1060      C1061   1.365       .  A
C1060      H1072   1.076       .  S
C1061      H1073   1.083       .  S
C1062      C2866   1.466       .  S
C1063      C2897   1.480       .  S
N1076      C1081   1.342       .  A
N1076      C1080   1.345       .  A
N1076      H1108   1.044       .  S
N1077      C1084   1.345       .  A
N1077      C1085   1.340       .  A
N1078      C1083   1.367       .  A
N1078      C1082   1.367       .  A
N1078      H1109   1.041       .  S
N1079      C1086   1.348       .  A
N1079      C1087   1.343       .  A
C1080      C1088   1.386       .  A
C1080      C1096   1.397       .  A
C1081      C1097   1.400       .  A
C1081      C1089   1.389       .  A
C1082      C1090   1.390       .  A
C1082      C1099   1.456       .  A
C1083      C1098   1.456       .  A
C1083      C1091   1.390       .  A
C1084      C1096   1.386       .  A
C1084      C1092   1.378       .  A
C1085      C1099   1.406       .  A
C1085      C1093   1.392       .  A
C1086      C1094   1.379       .  A
C1086      C1097   1.390       .  A
C1087      C1095   1.390       .  A
C1087      C1098   1.411       .  A
C1088      C1089   1.376       .  A
C1088      H1100   1.082       .  S
C1089      H1101   1.082       .  S
C1090      C1091   1.410       .  A
C1090      H1102   1.082       .  S
C1091      H1103   1.082       .  S
C1092      C1093   1.369       .  A
C1092      H1104   1.082       .  S
C1093      H1105   1.080       .  S
C1094      C1095   1.369       .  A
C1094      H1106   1.083   1_554  S
C1095      H1107   1.078   1_554  S
C1096      C2883   1.467       .  S
C1097      C2939   1.465       .  S
N1110      C1115   1.347       .  A
N1110      C1114   1.346       .  A
N1110      H1142   1.043       .  S
N1111      C1118   1.357       .  A
N1111      C1119   1.355       .  A
N1112      C1117   1.371       .  A
N1112      C1116   1.363       .  A
N1112      H1143   1.042       .  S
N1113      C1120   1.342       .  A
N1113      C1121   1.333       .  A
C1114      C1122   1.390       .  A
C1114      C1130   1.411       .  A
C1115      C1131   1.409       .  A
C1115      C1123   1.384       .  A
C1116      C1124   1.392       .  A
C1116      C1133   1.455       .  A
C1117      C1132   1.455       .  A
C1117      C1125   1.389       .  A
C1118      C1130   1.411       .  A
C1118      C1126   1.379       .  A
C1119      C1133   1.427       .  A
C1119      C1127   1.391       .  A
C1120      C1128   1.382       .  A
C1120      C1131   1.391       .  A
C1121      C1129   1.386       .  A
C1121      C1132   1.391       .  A
C1122      C1123   1.384       .  A
C1122      H1134   1.082       .  S
C1123      H1135   1.081       .  S
C1124      C1125   1.411       .  A
C1124      H1136   1.082       .  S
C1125      H1137   1.082       .  S
C1126      C1127   1.365       .  A
C1126      H1138   1.082       .  S
C1127      H1139   1.074       .  S
C1128      C1129   1.375       .  A
C1128      H1140   1.082       .  S
C1129      H1141   1.077       .  S
C1130      C2925   1.498       .  S
C1131      C2967   1.477       .  S
C1132      C1230   1.525       .  S
N1144      C1149   1.342       .  A
N1144      C1148   1.345       .  A
N1144      H1176   1.043       .  S
N1145      C1152   1.344       .  A
N1145      C1153   1.340       .  A
N1146      C1151   1.368       .  A
N1146      C1150   1.369       .  A
N1146      H1177   1.041       .  S
N1147      C1154   1.352       .  A
N1147      C1155   1.349       .  A
C1148      C1156   1.386       .  A
C1148      C1164   1.397       .  A
C1149      C1165   1.399       .  A
C1149      C1157   1.388       .  A
C1150      C1158   1.390       .  A
C1150      C1167   1.458       .  A
C1151      C1166   1.458       .  A
C1151      C1159   1.390       .  A
C1152      C1164   1.387       .  A
C1152      C1160   1.381       .  A
C1153      C1167   1.407       .  A
C1153      C1161   1.392       .  A
C1154      C1162   1.377       .  A
C1154      C1165   1.396       .  A
C1155      C1163   1.389       .  A
C1155      C1166   1.417       .  A
C1156      C1157   1.377       .  A
C1156      H1168   1.082       .  S
C1157      H1169   1.082       .  S
C1158      C1159   1.409       .  A
C1158      H1170   1.082       .  S
C1159      H1171   1.082       .  S
C1160      C1161   1.370       .  A
C1160      H1172   1.083       .  S
C1161      H1173   1.082       .  S
C1162      C1163   1.369       .  A
C1162      H1174   1.081       .  S
C1163      H1175   1.080       .  S
C1164      C3009   1.471       .  S
C1165      C2953   1.468       .  S
N1178      C1183   1.345       .  A
N1178      C1182   1.341       .  A
N1178      H1210   1.038       .  S
N1179      C1186   1.349       .  A
N1179      C1187   1.348       .  A
N1180      C1185   1.363       .  A
N1180      C1184   1.368       .  A
N1180      H1211   1.039       .  S
N1181      C1188   1.355       .  A
N1181      C1189   1.347       .  A
C1182      C1190   1.387       .  A
C1182      C1198   1.398       .  A
C1183      C1199   1.398       .  A
C1183      C1191   1.385       .  A
C1184      C1192   1.388       .  A
C1184      C1201   1.447       .  A
C1185      C1200   1.443       .  A
C1185      C1193   1.388       .  A
C1186      C1198   1.407       .  A
C1186      C1194   1.385       .  A
C1187      C1201   1.406       .  A
C1187      C1195   1.387       .  A
C1188      C1196   1.384       .  A
C1188      C1199   1.408       .  A
C1189      C1197   1.391       .  A
C1189      C1200   1.411       .  A
C1190      C1191   1.377       .  A
C1190      H1202   1.082       .  S
C1191      H1203   1.082       .  S
C1192      C1193   1.400       .  A
C1192      H1204   1.082   1_565  S
C1193      H1205   1.082   1_565  S
C1194      C1195   1.370       .  A
C1194      H1206   1.082       .  S
C1195      H1207   1.082       .  S
C1196      C1197   1.357       .  A
C1196      H1208   1.081       .  S
C1197      H1209   1.082       .  S
C1198      C2911   1.465       .  S
C1199      C3023   1.478       .  S
O1212      C1228   1.279       .  A
O1212     Zn1218   2.064       .  S
C1213      O1229   1.288       .  A
C1213      O1226   1.283       .  A
C1213      C1635   1.534       .  S
O1214      C1227   1.277       .  A
O1214     Cd1221   2.124       .  S
O1215      C1233   1.297       .  A
O1215     Cd1224   2.166       .  S
O1216      C1230   1.284       .  A
O1216     Cd1220   2.178       .  S
O1217      C1228   1.281       .  A
O1217     Cd1220   2.107       .  S
Zn1218     O1229   2.146       .  S
Zn1218     O1231   2.158       .  S
Zn1218     O1223   1.987       .  S
O1219      C1230   1.281       .  A
O1219     Cd1224   2.111       .  S
Cd1220     O1222   2.172       .  S
Cd1220     O1223   2.034       .  S
Cd1221     O1225   2.121       .  S
Cd1221     O1234   2.104       .  S
Cd1221     O1223   2.137       .  S
O1222      C1232   1.300       .  A
O1223     Cd1224   2.009       .  S
Cd1224     O1226   2.152       .  S
O1225      C1232   1.274       .  A
C1227      O1231   1.302       .  A
C1227      C1829   1.533       .  S
C1228      C1373   1.493       .  S
C1233      O1234   1.274       .  A
O1235      C1251   1.283       .  A
O1235     Zn1241   2.107       .  S
C1236      O1252   1.284       .  A
C1236      O1249   1.284       .  A
C1236      C1669   1.517       .  S
O1237      C1250   1.280   1_655  A
O1237     Cd1244   2.145       .  S
O1238      C1256   1.304       .  A
O1238     Cd1247   2.208   1_565  S
O1239      C1253   1.286       .  A
O1239     Cd1243   2.152       .  S
O1240      C1251   1.286       .  A
O1240     Cd1243   2.182   1_455  S
Zn1241     O1252   2.100   1_545  S
Zn1241     O1254   2.102   1_545  S
Zn1241     O1246   1.970   1_455  S
O1242      C1253   1.285       .  A
O1242     Cd1247   2.139       .  S
Cd1243     O1245   2.171       .  S
Cd1243     O1246   2.047       .  S
Cd1244     O1248   2.133   1_565  S
Cd1244     O1257   2.152       .  S
Cd1244     O1246   2.144   1_565  S
O1245      C1255   1.299       .  A
O1246     Cd1247   2.043       .  S
Cd1247     O1249   2.147   1_645  S
O1248      C1255   1.279       .  A
C1250      O1254   1.293       .  A
C1251      C2039   1.535       .  S
C1253      C1441   1.517       .  S
C1255      C1931   1.533       .  S
C1256      O1257   1.279       .  A
C1258      C2841   1.471       .  S
C1258      N1259   1.351   1_545  A
C1258      N1263   1.350       .  A
N1259      C1260   1.362       .  A
C1260      C2852   1.468       .  S
C1260      N1261   1.357   1_565  A
N1261      C1262   1.355       .  A
C1262      C2824   1.446       .  S
C1262      N1263   1.342       .  A
C1264      C2813   1.486       .  S
C1264      N1265   1.362       .  A
C1264      N1269   1.358       .  A
N1265      C1266   1.351       .  A
C1266      C2796   1.459   1_545  S
C1266      N1267   1.350       .  A
N1267      C1268   1.347       .  A
C1268      C2785   1.478       .  S
C1268      N1269   1.362       .  A
C1270      C2768   1.459       .  S
C1270      N1271   1.346       .  A
C1270      N1275   1.353       .  A
N1271      C1272   1.355       .  A
C1272      C2754   1.477       .  S
C1272      N1273   1.357       .  A
N1273      C1274   1.362       .  A
C1274      C2740   1.471       .  S
C1274      N1275   1.350       .  A
N1276      C1281   1.344       .  A
N1276      C1280   1.342       .  A
N1276      H1308   1.041       .  S
N1277      C1284   1.349       .  A
N1277      C1285   1.345       .  A
N1278      C1283   1.369       .  A
N1278      C1282   1.367       .  A
N1278      H1309   1.040       .  S
N1279      C1286   1.349       .  A
N1279      C1287   1.344       .  A
C1280      C1288   1.389       .  A
C1280      C1296   1.400       .  A
C1281      C1297   1.393       .  A
C1281      C1289   1.384       .  A
C1282      C1290   1.389       .  A
C1282      C1299   1.453       .  A
C1283      C1298   1.454       .  A
C1283      C1291   1.389       .  A
C1284      C1296   1.390       .  A
C1284      C1292   1.374       .  A
C1285      C1299   1.418       .  A
C1285      C1293   1.400       .  A
C1286      C1294   1.378       .  A
C1286      C1297   1.389       .  A
C1287      C1295   1.389       .  A
C1287      C1298   1.409       .  A
C1288      C1289   1.375       .  A
C1288      H1300   1.082       .  S
C1289      H1301   1.082       .  S
C1290      C1291   1.406       .  A
C1290      H1302   1.082       .  S
C1291      H1303   1.082       .  S
C1292      C1293   1.363       .  A
C1292      H1304   1.083   1_545  S
C1293      H1305   1.077       .  S
C1294      C1295   1.362       .  A
C1294      H1306   1.083       .  S
C1295      H1307   1.078       .  S
C1296      C2782   1.466       .  S
C1297      C2757   1.460       .  S
N1310      C1315   1.345       .  A
N1310      C1314   1.339       .  A
N1310      H1342   1.039       .  S
N1311      C1318   1.354       .  A
N1311      C1319   1.351       .  A
N1312      C1317   1.376       .  A
N1312      C1316   1.373       .  A
N1312      H1343   1.041       .  S
N1313      C1320   1.346       .  A
N1313      C1321   1.346       .  A
C1314      C1322   1.386       .  A
C1314      C1330   1.399       .  A
C1315      C1331   1.404       .  A
C1315      C1323   1.387       .  A
C1316      C1324   1.391       .  A
C1316      C1333   1.468       .  A
C1317      C1332   1.468       .  A
C1317      C1325   1.390       .  A
C1318      C1330   1.413       .  A
C1318      C1326   1.386       .  A
C1319      C1333   1.410       .  A
C1319      C1327   1.386       .  A
C1320      C1328   1.386       .  A
C1320      C1331   1.402       .  A
C1321      C1329   1.387       .  A
C1321      C1332   1.398       .  A
C1322      C1323   1.382       .  A
C1322      H1334   1.082       .  S
C1323      H1335   1.082       .  S
C1324      C1325   1.413       .  A
C1324      H1336   1.082       .  S
C1325      H1337   1.082       .  S
C1326      C1327   1.360       .  A
C1326      H1338   1.082       .  S
C1327      H1339   1.078       .  S
C1328      C1329   1.367       .  A
C1328      H1340   1.082       .  S
C1329      H1341   1.083       .  S
C1330      C2743   1.468       .  S
C1331      C2827   1.472       .  S
C1344      C2712   1.478       .  S
C1344      N1345   1.351       .  A
C1344      N1349   1.365       .  A
N1345      C1346   1.349       .  A
C1346      C2726   1.440       .  S
C1346      N1347   1.344       .  A
N1347      C1348   1.349       .  A
C1348      C2701   1.467       .  S
C1348      N1349   1.357       .  A
N1350      C1355   1.347       .  A
N1350      C1354   1.347       .  A
N1350      H1382   1.041       .  S
N1351      C1358   1.356       .  A
N1351      C1359   1.352       .  A
N1352      C1357   1.368       .  A
N1352      C1356   1.353       .  A
N1352      H1383   1.040       .  S
N1353      C1360   1.335       .  A
N1353      C1361   1.335       .  A
C1354      C1362   1.386       .  A
C1354      C1370   1.407       .  A
C1355      C1371   1.411       .  A
C1355      C1363   1.389       .  A
C1356      C1364   1.389       .  A
C1356      C1373   1.436       .  A
C1357      C1372   1.445       .  A
C1357      C1365   1.389       .  A
C1358      C1370   1.412       .  A
C1358      C1366   1.385       .  A
C1359      C1373   1.415       .  A
C1359      C1367   1.390       .  A
C1360      C1368   1.387       .  A
C1360      C1371   1.389       .  A
C1361      C1369   1.387       .  A
C1361      C1372   1.392       .  A
C1362      C1363   1.380       .  A
C1362      H1374   1.082       .  S
C1363      H1375   1.082       .  S
C1364      C1365   1.405       .  A
C1364      H1376   1.082       .  S
C1365      H1377   1.082       .  S
C1366      C1367   1.362       .  A
C1366      H1378   1.081       .  S
C1367      H1379   1.082       .  S
C1368      C1369   1.373       .  A
C1368      H1380   1.082       .  S
C1369      H1381   1.081       .  S
C1370      C2698   1.485       .  S
C1371      C2771   1.457       .  S
N1384      C1389   1.347       .  A
N1384      C1388   1.342       .  A
N1384      H1416   1.042       .  S
N1385      C1392   1.355       .  A
N1385      C1393   1.354       .  A
N1386      C1391   1.373       .  A
N1386      C1390   1.364       .  A
N1386      H1417   1.041       .  S
N1387      C1394   1.340       .  A
N1387      C1395   1.336       .  A
C1388      C1396   1.387       .  A
C1388      C1404   1.398       .  A
C1389      C1405   1.403       .  A
C1389      C1397   1.386       .  A
C1390      C1398   1.391       .  A
C1390      C1407   1.456       .  A
C1391      C1406   1.458       .  A
C1391      C1399   1.389       .  A
C1392      C1404   1.413       .  A
C1392      C1400   1.384       .  A
C1393      C1407   1.419       .  A
C1393      C1401   1.392       .  A
C1394      C1402   1.379       .  A
C1394      C1405   1.388       .  A
C1395      C1403   1.390       .  A
C1395      C1406   1.397       .  A
C1396      C1397   1.377       .  A
C1396      H1408   1.082       .  S
C1397      H1409   1.082       .  S
C1398      C1399   1.410       .  A
C1398      H1410   1.082       .  S
C1399      H1411   1.082       .  S
C1400      C1401   1.367       .  A
C1400      H1412   1.082       .  S
C1401      H1413   1.082       .  S
C1402      C1403   1.371       .  A
C1402      H1414   1.080       .  S
C1403      H1415   1.082       .  S
C1404      C2799   1.475       .  S
C1405      C2855   1.464       .  S
N1418      C1423   1.345       .  A
N1418      C1422   1.340       .  A
N1418      H1450   1.039       .  S
N1419      C1426   1.354       .  A
N1419      C1427   1.348       .  A
N1420      C1425   1.366       .  A
N1420      C1424   1.367       .  A
N1420      H1451   1.039       .  S
N1421      C1428   1.347       .  A
N1421      C1429   1.343       .  A
C1422      C1430   1.384       .  A
C1422      C1438   1.395       .  A
C1423      C1439   1.405       .  A
C1423      C1431   1.388       .  A
C1424      C1432   1.390       .  A
C1424      C1441   1.451       .  A
C1425      C1440   1.448       .  A
C1425      C1433   1.388       .  A
C1426      C1438   1.405       .  A
C1426      C1434   1.381       .  A
C1427      C1441   1.415       .  A
C1427      C1435   1.384       .  A
C1428      C1436   1.386       .  A
C1428      C1439   1.403       .  A
C1429      C1437   1.389       .  A
C1429      C1440   1.396       .  A
C1430      C1431   1.380       .  A
C1430      H1442   1.082       .  S
C1431      H1443   1.082       .  S
C1432      C1433   1.405       .  A
C1432      H1444   1.082   1_655  S
C1433      H1445   1.082   1_655  S
C1434      C1435   1.363       .  A
C1434      H1446   1.082       .  S
C1435      H1447   1.075       .  S
C1436      C1437   1.366       .  A
C1436      H1448   1.082       .  S
C1437      H1449   1.082       .  S
C1438      C2810   1.472       .  S
C1439      C2729   1.472       .  S
C1440      C1943   1.505       .  S
N1452      C1457   1.341       .  A
N1452      C1456   1.345       .  A
N1452      H1484   1.043       .  S
N1453      C1460   1.347       .  A
N1453      C1461   1.343       .  A
N1454      C1459   1.368       .  A
N1454      C1458   1.365       .  A
N1454      H1485   1.040       .  S
N1455      C1462   1.350       .  A
N1455      C1463   1.351       .  A
C1456      C1464   1.385       .  A
C1456      C1472   1.396       .  A
C1457      C1473   1.397       .  A
C1457      C1465   1.388       .  A
C1458      C1466   1.389       .  A
C1458      C1475   1.451       .  A
C1459      C1474   1.454       .  A
C1459      C1467   1.390       .  A
C1460      C1472   1.390       .  A
C1460      C1468   1.378       .  A
C1461      C1475   1.409       .  A
C1461      C1469   1.393       .  A
C1462      C1470   1.376       .  A
C1462      C1473   1.398       .  A
C1463      C1471   1.397       .  A
C1463      C1474   1.426       .  A
C1464      C1465   1.379       .  A
C1464      H1476   1.082       .  S
C1465      H1477   1.082       .  S
C1466      C1467   1.408       .  A
C1466      H1478   1.082       .  S
C1467      H1479   1.082       .  S
C1468      C1469   1.363       .  A
C1468      H1480   1.082       .  S
C1469      H1481   1.081       .  S
C1470      C1471   1.363       .  A
C1470      H1482   1.081   1_545  S
C1471      H1483   1.077   1_545  S
C1472      C2715   1.466       .  S
C1473      C2838   1.467       .  S
C1486      C2670   1.483       .  S
C1486      N1487   1.354       .  A
C1486      N1491   1.366       .  A
N1487      C1488   1.356   1_655  A
C1488      C2687   1.452       .  S
C1488      N1489   1.349       .  A
N1489      C1490   1.353       .  A
C1490      C2656   1.471       .  S
C1490      N1491   1.357   1_455  A
N1492      C1497   1.346       .  A
N1492      C1496   1.341       .  A
N1492      H1524   1.044       .  S
N1493      C1500   1.351       .  A
N1493      C1501   1.354       .  A
N1494      C1499   1.368       .  A
N1494      C1498   1.365       .  A
N1494      H1525   1.042       .  S
N1495      C1502   1.347       .  A
N1495      C1503   1.338       .  A
C1496      C1504   1.386       .  A
C1496      C1512   1.400       .  A
C1497      C1513   1.406       .  A
C1497      C1505   1.387       .  A
C1498      C1506   1.391       .  A
C1498      C1515   1.457       .  A
C1499      C1514   1.456       .  A
C1499      C1507   1.391       .  A
C1500      C1512   1.405       .  A
C1500      C1508   1.381       .  A
C1501      C1515   1.418       .  A
C1501      C1509   1.382       .  A
C1502      C1510   1.378       .  A
C1502      C1513   1.396       .  A
C1503      C1511   1.386       .  A
C1503      C1514   1.403       .  A
C1504      C1505   1.387       .  A
C1504      H1516   1.082       .  S
C1505      H1517   1.082       .  S
C1506      C1507   1.413       .  A
C1506      H1518   1.082       .  S
C1507      H1519   1.082       .  S
C1508      C1509   1.367       .  A
C1508      H1520   1.083       .  S
C1509      H1521   1.073       .  S
C1510      C1511   1.370       .  A
C1510      H1522   1.082       .  S
C1511      H1523   1.071       .  S
C1512      C2659   1.476       .  S
C1513      C2642   1.480       .  S
C1526      C2600   1.461       .  S
C1526      N1527   1.342       .  A
C1526      N1531   1.353       .  A
N1527      C1528   1.342       .  A
C1528      C2614   1.452       .  S
C1528      N1529   1.356       .  A
N1529      C1530   1.363       .  A
C1530      C2631   1.462       .  S
C1530      N1531   1.360       .  A
C1532      C2572   1.487       .  S
C1532      N1533   1.362       .  A
C1532      N1537   1.359       .  A
N1533      C1534   1.360       .  A
C1534      C2645   1.464       .  S
C1534      N1535   1.353       .  A
N1535      C1536   1.346       .  A
C1536      C2589   1.460       .  S
C1536      N1537   1.356       .  A
N1538      C1543   1.350       .  A
N1538      C1542   1.338       .  A
N1538      H1570   1.045       .  S
N1539      C1546   1.346       .  A
N1539      C1547   1.355       .  A
N1540      C1545   1.371       .  A
N1540      C1544   1.374       .  A
N1540      H1571   1.042       .  S
N1541      C1548   1.349       .  A
N1541      C1549   1.335       .  A
C1542      C1550   1.387       .  A
C1542      C1558   1.391       .  A
C1543      C1559   1.404       .  A
C1543      C1551   1.388       .  A
C1544      C1552   1.390       .  A
C1544      C1561   1.467       .  A
C1545      C1560   1.462       .  A
C1545      C1553   1.390       .  A
C1546      C1558   1.401       .  A
C1546      C1554   1.382       .  A
C1547      C1561   1.422       .  A
C1547      C1555   1.391       .  A
C1548      C1556   1.378       .  A
C1548      C1559   1.401       .  A
C1549      C1557   1.391       .  A
C1549      C1560   1.403       .  A
C1550      C1551   1.372       .  A
C1550      H1562   1.082       .  S
C1551      H1563   1.082       .  S
C1552      C1553   1.411       .  A
C1552      H1564   1.082       .  S
C1553      H1565   1.082       .  S
C1554      C1555   1.373       .  A
C1554      H1566   1.083       .  S
C1555      H1567   1.081       .  S
C1556      C1557   1.379       .  A
C1556      H1568   1.082       .  S
C1557      H1569   1.081       .  S
C1558      C2603   1.453       .  S
C1559      C2575   1.486       .  S
C1572      C2561   1.453       .  S
C1572      N1573   1.356       .  A
C1572      N1577   1.361       .  A
N1573      C1574   1.348       .  A
C1574      C2530   1.464   1_455  S
C1574      N1575   1.350       .  A
N1575      C1576   1.346       .  A
C1576      C2544   1.469       .  S
C1576      N1577   1.356       .  A
N1578      C1583   1.345       .  A
N1578      C1582   1.340       .  A
N1578      H1610   1.038       .  S
N1579      C1586   1.353       .  A
N1579      C1587   1.350       .  A
N1580      C1585   1.369       .  A
N1580      C1584   1.368       .  A
N1580      H1611   1.040       .  S
N1581      C1588   1.349       .  A
N1581      C1589   1.345       .  A
C1582      C1590   1.386       .  A
C1582      C1598   1.398       .  A
C1583      C1599   1.399       .  A
C1583      C1591   1.385       .  A
C1584      C1592   1.390       .  A
C1584      C1601   1.454       .  A
C1585      C1600   1.453       .  A
C1585      C1593   1.389       .  A
C1586      C1598   1.409       .  A
C1586      C1594   1.385       .  A
C1587      C1601   1.408       .  A
C1587      C1595   1.388       .  A
C1588      C1596   1.387       .  A
C1588      C1599   1.407       .  A
C1589      C1597   1.389       .  A
C1589      C1600   1.399       .  A
C1590      C1591   1.380       .  A
C1590      H1602   1.082       .  S
C1591      H1603   1.082       .  S
C1592      C1593   1.407       .  A
C1592      H1604   1.082       .  S
C1593      H1605   1.082       .  S
C1594      C1595   1.361       .  A
C1594      H1606   1.082       .  S
C1595      H1607   1.080       .  S
C1596      C1597   1.362       .  A
C1596      H1608   1.082       .  S
C1597      H1609   1.082       .  S
C1598      C2547   1.470       .  S
C1599      C2586   1.473       .  S
C1601      C1958   1.516       .  S
N1612      C1617   1.343       .  A
N1612      C1616   1.341       .  A
N1612      H1644   1.038       .  S
N1613      C1620   1.348       .  A
N1613      C1621   1.345       .  A
N1614      C1619   1.375       .  A
N1614      C1618   1.380       .  A
N1614      H1645   1.038       .  S
N1615      C1622   1.359       .  A
N1615      C1623   1.349       .  A
C1616      C1624   1.388       .  A
C1616      C1632   1.398       .  A
C1617      C1633   1.395       .  A
C1617      C1625   1.384       .  A
C1618      C1626   1.390       .  A
C1618      C1635   1.472       .  A
C1619      C1634   1.471       .  A
C1619      C1627   1.391       .  A
C1620      C1632   1.400       .  A
C1620      C1628   1.383       .  A
C1621      C1635   1.403       .  A
C1621      C1629   1.391       .  A
C1622      C1630   1.379       .  A
C1622      C1633   1.409       .  A
C1623      C1631   1.391       .  A
C1623      C1634   1.419       .  A
C1624      C1625   1.377       .  A
C1624      H1636   1.082       .  S
C1625      H1637   1.082       .  S
C1626      C1627   1.410       .  A
C1626      H1638   1.082       .  S
C1627      H1639   1.082       .  S
C1628      C1629   1.359       .  A
C1628      H1640   1.083       .  S
C1629      H1641   1.081       .  S
C1630      C1631   1.354       .  A
C1630      H1642   1.080       .  S
C1631      H1643   1.080       .  S
C1632      C2533   1.462       .  S
C1633      C2673   1.486       .  S
N1646      C1651   1.346       .  A
N1646      C1650   1.343       .  A
N1646      H1678   1.039       .  S
N1647      C1654   1.349       .  A
N1647      C1655   1.346       .  A
N1648      C1653   1.369       .  A
N1648      C1652   1.369       .  A
N1648      H1679   1.041       .  S
N1649      C1656   1.352       .  A
N1649      C1657   1.347       .  A
C1650      C1658   1.384       .  A
C1650      C1666   1.401       .  A
C1651      C1667   1.405       .  A
C1651      C1659   1.387       .  A
C1652      C1660   1.388   1_565  A
C1652      C1669   1.454       .  A
C1653      C1668   1.458       .  A
C1653      C1661   1.392   1_565  A
C1654      C1666   1.405       .  A
C1654      C1662   1.387       .  A
C1655      C1669   1.401       .  A
C1655      C1663   1.388       .  A
C1656      C1664   1.385       .  A
C1656      C1667   1.411       .  A
C1657      C1665   1.389       .  A
C1657      C1668   1.410       .  A
C1658      C1659   1.377       .  A
C1658      H1670   1.082       .  S
C1659      H1671   1.078       .  S
C1660      C1661   1.408       .  A
C1660      H1672   1.082       .  S
C1661      H1673   1.081       .  S
C1662      C1663   1.364       .  A
C1662      H1674   1.082       .  S
C1663      H1675   1.082       .  S
C1664      C1665   1.369       .  A
C1664      H1676   1.082       .  S
C1665      H1677   1.083       .  S
C1666      C2684   1.470       .  S
C1667      C2628   1.478       .  S
N1680      C1685   1.343       .  A
N1680      C1684   1.345       .  A
N1680      H1712   1.039       .  S
N1681      C1688   1.350       .  A
N1681      C1689   1.344       .  A
N1682      C1687   1.372       .  A
N1682      C1686   1.371       .  A
N1682      H1713   1.041       .  S
N1683      C1690   1.354       .  A
N1683      C1691   1.351       .  A
C1684      C1692   1.384       .  A
C1684      C1700   1.399       .  A
C1685      C1701   1.400       .  A
C1685      C1693   1.388       .  A
C1686      C1694   1.388   1_556  A
C1686      C1703   1.457       .  A
C1687      C1702   1.462       .  A
C1687      C1695   1.392   1_556  A
C1688      C1700   1.398       .  A
C1688      C1696   1.381       .  A
C1689      C1703   1.401       .  A
C1689      C1697   1.389       .  A
C1690      C1698   1.385       .  A
C1690      C1701   1.412       .  A
C1691      C1699   1.389       .  A
C1691      C1702   1.415       .  A
C1692      C1693   1.379       .  A
C1692      H1704   1.082       .  S
C1693      H1705   1.082       .  S
C1694      C1695   1.407       .  A
C1694      H1706   1.082       .  S
C1695      H1707   1.081       .  S
C1696      C1697   1.357       .  A
C1696      H1708   1.082       .  S
C1697      H1709   1.079       .  S
C1698      C1699   1.370       .  A
C1698      H1710   1.082       .  S
C1699      H1711   1.082       .  S
C1700      C2617   1.469       .  S
C1701      C2558   1.472       .  S
C1714      C2488   1.457       .  S
C1714      N1715   1.353       .  A
C1714      N1719   1.352       .  A
N1715      C1716   1.354       .  A
C1716      C2516   1.466       .  S
C1716      N1717   1.362       .  A
N1717      C1718   1.352       .  A
C1718      C2502   1.476       .  S
C1718      N1719   1.358       .  A
N1720      C1725   1.346       .  A
N1720      C1724   1.344       .  A
N1720      H1752   1.037       .  S
N1721      C1728   1.355       .  A
N1721      C1729   1.352       .  A
N1722      C1727   1.369       .  A
N1722      C1726   1.369       .  A
N1722      H1753   1.038       .  S
N1723      C1730   1.354       .  A
N1723      C1731   1.350       .  A
C1724      C1732   1.386       .  A
C1724      C1740   1.402       .  A
C1725      C1741   1.402       .  A
C1725      C1733   1.385       .  A
C1726      C1734   1.389       .  A
C1726      C1743   1.453       .  A
C1727      C1742   1.452       .  A
C1727      C1735   1.389       .  A
C1728      C1740   1.414       .  A
C1728      C1736   1.387       .  A
C1729      C1743   1.413       .  A
C1729      C1737   1.389       .  A
C1730      C1738   1.386       .  A
C1730      C1741   1.413       .  A
C1731      C1739   1.389       .  A
C1731      C1742   1.411       .  A
C1732      C1733   1.380       .  A
C1732      H1744   1.082       .  S
C1733      H1745   1.082       .  S
C1734      C1735   1.403       .  A
C1734      H1746   1.082       .  S
C1735      H1747   1.082       .  S
C1736      C1737   1.359       .  A
C1736      H1748   1.081       .  S
C1737      H1749   1.083       .  S
C1738      C1739   1.360       .  A
C1738      H1750   1.081       .  S
C1739      H1751   1.081       .  S
C1740      C2505   1.477       .  S
C1741      C2477   1.479       .  S
C1754      C2474   1.478       .  S
C1754      N1755   1.358       .  A
C1754      N1759   1.356       .  A
N1755      C1756   1.364       .  A
C1756      C2460   1.481       .  S
C1756      N1757   1.357       .  A
N1757      C1758   1.353       .  A
C1758      C2446   1.478       .  S
C1758      N1759   1.354       .  A
C1760      C2418   1.465       .  S
C1760      N1761   1.357       .  A
C1760      N1765   1.357       .  A
N1761      C1762   1.359       .  A
C1762      C2407   1.472       .  S
C1762      N1763   1.357       .  A
N1763      C1764   1.351       .  A
C1764      C2435   1.477   1_655  S
C1764      N1765   1.346       .  A
C1766      C2390   1.476       .  S
C1766      N1767   1.361   1_455  A
C1766      N1771   1.360   1_455  A
N1767      C1768   1.356       .  A
C1768      C2362   1.463       .  S
C1768      N1769   1.347       .  A
N1769      C1770   1.346       .  A
C1770      C2379   1.462       .  S
C1770      N1771   1.361       .  A
N1772      C1777   1.343       .  A
N1772      C1776   1.347       .  A
N1772      H1804   1.042       .  S
N1773      C1780   1.345       .  A
N1773      C1781   1.337       .  A
N1774      C1779   1.372       .  A
N1774      C1778   1.374       .  A
N1774      H1805   1.040       .  S
N1775      C1782   1.355       .  A
N1775      C1783   1.352       .  A
C1776      C1784   1.388       .  A
C1776      C1792   1.406       .  A
C1777      C1793   1.397       .  A
C1777      C1785   1.386       .  A
C1778      C1786   1.390       .  A
C1778      C1795   1.466       .  A
C1779      C1794   1.466       .  A
C1779      C1787   1.391       .  A
C1780      C1792   1.393       .  A
C1780      C1788   1.380       .  A
C1781      C1795   1.404       .  A
C1781      C1789   1.393       .  A
C1782      C1790   1.376       .  A
C1782      C1793   1.399       .  A
C1783      C1791   1.391       .  A
C1783      C1794   1.424       .  A
C1784      C1785   1.375       .  A
C1784      H1796   1.082       .  S
C1785      H1797   1.082       .  S
C1786      C1787   1.410       .  A
C1786      H1798   1.082       .  S
C1787      H1799   1.082       .  S
C1788      C1789   1.374       .  A
C1788      H1800   1.082       .  S
C1789      H1801   1.083       .  S
C1790      C1791   1.364       .  A
C1790      H1802   1.083       .  S
C1791      H1803   1.074       .  S
C1792      C2393   1.473       .  S
C1793      C2432   1.472       .  S
N1806      C1811   1.345       .  A
N1806      C1810   1.349       .  A
N1806      H1838   1.043       .  S
N1807      C1814   1.345       .  A
N1807      C1815   1.339       .  A
N1808      C1813   1.367       .  A
N1808      C1812   1.371       .  A
N1808      H1839   1.041       .  S
N1809      C1816   1.354       .  A
N1809      C1817   1.355       .  A
C1810      C1818   1.387       .  A
C1810      C1826   1.411       .  A
C1811      C1827   1.406       .  A
C1811      C1819   1.386       .  A
C1812      C1820   1.390       .  A
C1812      C1829   1.458       .  A
C1813      C1828   1.457       .  A
C1813      C1821   1.391       .  A
C1814      C1826   1.401       .  A
C1814      C1822   1.385       .  A
C1815      C1829   1.400       .  A
C1815      C1823   1.388       .  A
C1816      C1824   1.381       .  A
C1816      C1827   1.408       .  A
C1817      C1825   1.393       .  A
C1817      C1828   1.425       .  A
C1818      C1819   1.383       .  A
C1818      H1830   1.082       .  S
C1819      H1831   1.082       .  S
C1820      C1821   1.408       .  A
C1820      H1832   1.082       .  S
C1821      H1833   1.082       .  S
C1822      C1823   1.373       .  A
C1822      H1834   1.083       .  S
C1823      H1835   1.082       .  S
C1824      C1825   1.362       .  A
C1824      H1836   1.083       .  S
C1825      H1837   1.081       .  S
C1826      C2449   1.481       .  S
C1827      C2365   1.483       .  S
C1828      C1957   1.544       .  S
N1840      C1845   1.347       .  A
N1840      C1844   1.337       .  A
N1840      H1872   1.044       .  S
N1841      C1848   1.357       .  A
N1841      C1849   1.356       .  A
N1842      C1847   1.370       .  A
N1842      C1846   1.359       .  A
N1842      H1873   1.042       .  S
N1843      C1850   1.336       .  A
N1843      C1851   1.330       .  A
C1844      C1852   1.387       .  A
C1844      C1860   1.392       .  A
C1845      C1861   1.402       .  A
C1845      C1853   1.387       .  A
C1846      C1854   1.390   1_554  A
C1846      C1863   1.447       .  A
C1847      C1862   1.450       .  A
C1847      C1855   1.389   1_554  A
C1848      C1860   1.414       .  A
C1848      C1856   1.382       .  A
C1849      C1863   1.421       .  A
C1849      C1857   1.384       .  A
C1850      C1858   1.376       .  A
C1850      C1861   1.380       .  A
C1851      C1859   1.391       .  A
C1851      C1862   1.392       .  A
C1852      C1853   1.377       .  A
C1852      H1864   1.082       .  S
C1853      H1865   1.082       .  S
C1854      C1855   1.409       .  A
C1854      H1866   1.082       .  S
C1855      H1867   1.082       .  S
C1856      C1857   1.371       .  A
C1856      H1868   1.082       .  S
C1857      H1869   1.077       .  S
C1858      C1859   1.376       .  A
C1858      H1870   1.081       .  S
C1859      H1871   1.081       .  S
C1860      C2421   1.475       .  S
C1861      C2519   1.461       .  S
N1874      C1879   1.342       .  A
N1874      C1878   1.350       .  A
N1874      H1906   1.043       .  S
N1875      C1882   1.342       .  A
N1875      C1883   1.335       .  A
N1876      C1881   1.364       .  A
N1876      C1880   1.373       .  A
N1876      H1907   1.039       .  S
N1877      C1884   1.355       .  A
N1877      C1885   1.355       .  A
C1878      C1886   1.388       .  A
C1878      C1894   1.406       .  A
C1879      C1895   1.398       .  A
C1879      C1887   1.387       .  A
C1880      C1888   1.389       .  A
C1880      C1897   1.460       .  A
C1881      C1896   1.459       .  A
C1881      C1889   1.392       .  A
C1882      C1894   1.383       .  A
C1882      C1890   1.375       .  A
C1883      C1897   1.393       .  A
C1883      C1891   1.385       .  A
C1884      C1892   1.380       .  A
C1884      C1895   1.407       .  A
C1885      C1893   1.394       .  A
C1885      C1896   1.426       .  A
C1886      C1887   1.373       .  A
C1886      H1898   1.082       .  S
C1887      H1899   1.082       .  S
C1888      C1889   1.412       .  A
C1888      H1900   1.082       .  S
C1889      H1901   1.082       .  S
C1890      C1891   1.374       .  A
C1890      H1902   1.079       .  S
C1891      H1903   1.081       .  S
C1892      C1893   1.363       .  A
C1892      H1904   1.083       .  S
C1893      H1905   1.081       .  S
C1894      C2463   1.473       .  S
C1895      C2404   1.470       .  S
N1908      C1913   1.346       .  A
N1908      C1912   1.335       .  A
N1908      H1940   1.031       .  S
N1909      C1916   1.351       .  A
N1909      C1917   1.349       .  A
N1910      C1915   1.366       .  A
N1910      C1914   1.365       .  A
N1910      H1941   1.037       .  S
N1911      C1918   1.349       .  A
N1911      C1919   1.341       .  A
C1912      C1920   1.384       .  A
C1912      C1928   1.397       .  A
C1913      C1929   1.407       .  A
C1913      C1921   1.387       .  A
C1914      C1922   1.390       .  A
C1914      C1931   1.454       .  A
C1915      C1930   1.452       .  A
C1915      C1923   1.390       .  A
C1916      C1928   1.404       .  A
C1916      C1924   1.377       .  A
C1917      C1931   1.423       .  A
C1917      C1925   1.391       .  A
C1918      C1926   1.383       .  A
C1918      C1929   1.405       .  A
C1919      C1927   1.381       .  A
C1919      C1930   1.397       .  A
C1920      C1921   1.383       .  A
C1920      H1932   1.082       .  S
C1921      H1933   1.082       .  S
C1922      C1923   1.406       .  A
C1922      H1934   1.082   1_545  S
C1923      H1935   1.081   1_545  S
C1924      C1925   1.361       .  A
C1924      H1936   1.080       .  S
C1925      H1937   1.080       .  S
C1926      C1927   1.369       .  A
C1926      H1938   1.082       .  S
C1927      H1939   1.080       .  S
C1928      C2376   1.465       .  S
C1929      C2491   1.480       .  S
O1942      C1958   1.281       .  A
O1942     Zn1948   2.089   1_455  S
C1943      O1959   1.282       .  A
C1943      O1956   1.280       .  A
O1944      C1957   1.279       .  A
O1944     Cd1951   2.148       .  S
O1945      C1963   1.297       .  A
O1945     Cd1954   2.149       .  S
O1946      C1960   1.279       .  A
O1946     Cd1950   2.104       .  S
O1947      C1958   1.282       .  A
O1947     Cd1950   2.142       .  S
Zn1948     O1959   2.080       .  S
Zn1948     O1961   2.115       .  S
Zn1948     O1953   1.967       .  S
O1949      C1960   1.282       .  A
O1949     Cd1954   2.164   1_455  S
Cd1950     O1952   2.173       .  S
Cd1950     O1953   2.013   1_455  S
Cd1951     O1955   2.136       .  S
Cd1951     O1964   2.133       .  S
Cd1951     O1953   2.140       .  S
O1952      C1962   1.299       .  A
O1953     Cd1954   2.034       .  S
Cd1954     O1956   2.137       .  S
O1955      C1962   1.280   1_655  A
C1957      O1961   1.292       .  A
C1960      C2113   1.519       .  S
C1963      O1964   1.277       .  A
C1965      C2334   1.475       .  S
C1965      N1966   1.360   1_556  A
C1965      N1970   1.362   1_556  A
N1966      C1967   1.351   1_455  A
C1967      C2351   1.473       .  S
C1967      N1968   1.351       .  A
N1968      C1969   1.357   1_655  A
C1969      C2320   1.484   1_455  S
C1969      N1970   1.363       .  A
N1971      C1976   1.346       .  A
N1971      C1975   1.350       .  A
N1971      H2003   1.043       .  S
N1972      C1979   1.345       .  A
N1972      C1980   1.341       .  A
N1973      C1978   1.366       .  A
N1973      C1977   1.374       .  A
N1973      H2004   1.037       .  S
N1974      C1981   1.359       .  A
N1974      C1982   1.356       .  A
C1975      C1983   1.387       .  A
C1975      C1991   1.404       .  A
C1976      C1992   1.402       .  A
C1976      C1984   1.388       .  A
C1977      C1985   1.389       .  A
C1977      C1994   1.460       .  A
C1978      C1993   1.459       .  A
C1978      C1986   1.391       .  A
C1979      C1991   1.386       .  A
C1979      C1987   1.375   1_455  A
C1980      C1994   1.404       .  A
C1980      C1988   1.388       .  A
C1981      C1989   1.381       .  A
C1981      C1992   1.411       .  A
C1982      C1990   1.393       .  A
C1982      C1993   1.428       .  A
C1983      C1984   1.373       .  A
C1983      H1995   1.082       .  S
C1984      H1996   1.082       .  S
C1985      C1986   1.408       .  A
C1985      H1997   1.081       .  S
C1986      H1998   1.082       .  S
C1987      C1988   1.369   1_655  A
C1987      H1999   1.079       .  S
C1988      H2000   1.081   1_455  S
C1989      C1990   1.357       .  A
C1989      H2001   1.082       .  S
C1990      H2002   1.082       .  S
C1991      C2323   1.473       .  S
C1992      C2306   1.475       .  S
C2005      C2267   1.462       .  S
C2005      N2006   1.352   1_545  A
C2005      N2010   1.352       .  A
N2006      C2007   1.353   1_455  A
C2007      C2292   1.460       .  S
C2007      N2008   1.355   1_565  A
N2008      C2009   1.358       .  A
C2009      C2278   1.469       .  S
C2009      N2010   1.354   1_655  A
C2011      C2309   1.480       .  S
C2011      N2012   1.353       .  A
C2011      N2016   1.359       .  A
N2012      C2013   1.354       .  A
C2013      C2250   1.483       .  S
C2013      N2014   1.359       .  A
N2014      C2015   1.362       .  A
C2015      C2236   1.494       .  S
C2015      N2016   1.359       .  A
N2017      C2022   1.344       .  A
N2017      C2021   1.356       .  A
N2017      H2049   1.036       .  S
N2018      C2025   1.347       .  A
N2018      C2026   1.347       .  A
N2019      C2024   1.366       .  A
N2019      C2023   1.366       .  A
N2019      H2050   1.033       .  S
N2020      C2027   1.356       .  A
N2020      C2028   1.359       .  A
C2021      C2029   1.380       .  A
C2021      C2037   1.411       .  A
C2022      C2038   1.417       .  A
C2022      C2030   1.393       .  A
C2023      C2031   1.387       .  A
C2023      C2040   1.454       .  A
C2024      C2039   1.464       .  A
C2024      C2032   1.394       .  A
C2025      C2037   1.396       .  A
C2025      C2033   1.389       .  A
C2026      C2040   1.394       .  A
C2026      C2034   1.381       .  A
C2027      C2035   1.389       .  A
C2027      C2038   1.429       .  A
C2028      C2036   1.388       .  A
C2028      C2039   1.430       .  A
C2029      C2030   1.377       .  A
C2029      H2041   1.082       .  S
C2030      H2042   1.082       .  S
C2031      C2032   1.412       .  A
C2031      H2043   1.082       .  S
C2032      H2044   1.082       .  S
C2033      C2034   1.369       .  A
C2033      H2045   1.083       .  S
C2034      H2046   1.083       .  S
C2035      C2036   1.362       .  A
C2035      H2047   1.081       .  S
C2036      H2048   1.082       .  S
C2037      C2239   1.485       .  S
C2038      C2264   1.473       .  S
C2051      C2197   1.454       .  S
C2051      N2052   1.343       .  A
C2051      N2056   1.349       .  A
N2052      C2053   1.343   1_554  A
C2053      C2222   1.467       .  S
C2053      N2054   1.357       .  A
N2054      C2055   1.364   1_556  A
C2055      C2208   1.470   1_545  S
C2055      N2056   1.359       .  A
N2057      C2062   1.332       .  A
N2057      C2061   1.346       .  A
N2057      H2089   1.044       .  S
N2058      C2065   1.341       .  A
N2058      C2066   1.329       .  A
N2059      C2064   1.368       .  A
N2059      C2063   1.370       .  A
N2059      H2090   1.041       .  S
N2060      C2067   1.351       .  A
N2060      C2068   1.355       .  A
C2061      C2069   1.386       .  A
C2061      C2077   1.398       .  A
C2062      C2078   1.387       .  A
C2062      C2070   1.389       .  A
C2063      C2071   1.390       .  A
C2063      C2080   1.458       .  A
C2064      C2079   1.457       .  A
C2064      C2072   1.390       .  A
C2065      C2077   1.386       .  A
C2065      C2073   1.374       .  A
C2066      C2080   1.392       .  A
C2066      C2074   1.391       .  A
C2067      C2075   1.381       .  A
C2067      C2078   1.409       .  A
C2068      C2076   1.389       .  A
C2068      C2079   1.420       .  A
C2069      C2070   1.377       .  A
C2069      H2081   1.082       .  S
C2070      H2082   1.083       .  S
C2071      C2072   1.410       .  A
C2071      H2083   1.082       .  S
C2072      H2084   1.082       .  S
C2073      C2074   1.376       .  A
C2073      H2085   1.080       .  S
C2074      H2086   1.081       .  S
C2075      C2076   1.373       .  A
C2075      H2087   1.081       .  S
C2076      H2088   1.082       .  S
C2077      C2253   1.466       .  S
C2078      C2194   1.455       .  S
N2091      C2096   1.341       .  A
N2091      C2095   1.345       .  A
N2091      H2123   1.042       .  S
N2092      C2099   1.341       .  A
N2092      C2100   1.340       .  A
N2093      C2098   1.365       .  A
N2093      C2097   1.374       .  A
N2093      H2124   1.040       .  S
N2094      C2101   1.355       .  A
N2094      C2102   1.352       .  A
C2095      C2103   1.385       .  A
C2095      C2111   1.395       .  A
C2096      C2112   1.396       .  A
C2096      C2104   1.388       .  A
C2097      C2105   1.388       .  A
C2097      C2114   1.459       .  A
C2098      C2113   1.457       .  A
C2098      C2106   1.391       .  A
C2099      C2111   1.381       .  A
C2099      C2107   1.375       .  A
C2100      C2114   1.399       .  A
C2100      C2108   1.388       .  A
C2101      C2109   1.374       .  A
C2101      C2112   1.397       .  A
C2102      C2110   1.401       .  A
C2102      C2113   1.429       .  A
C2103      C2104   1.372       .  A
C2103      H2115   1.082       .  S
C2104      H2116   1.082       .  S
C2105      C2106   1.409       .  A
C2105      H2117   1.082       .  S
C2106      H2118   1.082       .  S
C2107      C2108   1.365       .  A
C2107      H2119   1.075       .  S
C2108      H2120   1.082       .  S
C2109      C2110   1.360       .  A
C2109      H2121   1.083       .  S
C2110      H2122   1.078       .  S
C2111      C2225   1.467       .  S
C2112      C2337   1.469       .  S
N2125      C2130   1.339       .  A
N2125      C2129   1.350       .  A
N2125      H2157   1.042       .  S
N2126      C2133   1.349       .  A
N2126      C2134   1.343       .  A
N2127      C2132   1.367       .  A
N2127      C2131   1.372       .  A
N2127      H2158   1.038       .  S
N2128      C2135   1.357       .  A
N2128      C2136   1.355       .  A
C2129      C2137   1.383       .  A
C2129      C2145   1.399       .  A
C2130      C2146   1.399       .  A
C2130      C2138   1.389       .  A
C2131      C2139   1.388       .  A
C2131      C2148   1.457       .  A
C2132      C2147   1.458       .  A
C2132      C2140   1.391       .  A
C2133      C2145   1.393       .  A
C2133      C2141   1.372       .  A
C2134      C2148   1.407       .  A
C2134      C2142   1.385       .  A
C2135      C2143   1.379       .  A
C2135      C2146   1.408       .  A
C2136      C2144   1.398       .  A
C2136      C2147   1.430       .  A
C2137      C2138   1.372       .  A
C2137      H2149   1.082       .  S
C2138      H2150   1.082       .  S
C2139      C2140   1.407       .  A
C2139      H2151   1.082       .  S
C2140      H2152   1.082       .  S
C2141      C2142   1.363       .  A
C2141      H2153   1.079   1_455  S
C2142      H2154   1.079   1_455  S
C2143      C2144   1.360       .  A
C2143      H2155   1.083       .  S
C2144      H2156   1.080       .  S
C2145      C2295   1.480       .  S
C2146      C2211   1.465       .  S
N2159      C2164   1.362       .  A
N2159      C2163   1.375       .  A
N2159      H2191   1.042       .  S
N2160      C2167   1.332       .  A
N2160      C2168   1.336       .  A
N2161      C2166   1.343       .  A
N2161      C2165   1.347       .  A
N2161      H2192   1.042       .  S
N2162      C2169   1.361       .  A
N2162      C2170   1.360       .  A
C2163      C2171   1.388       .  A
C2163      C2179   1.458       .  A
C2164      C2180   1.456       .  A
C2164      C2172   1.391       .  A
C2165      C2173   1.387       .  A
C2165      C2182   1.409       .  A
C2166      C2181   1.403       .  A
C2166      C2174   1.388       .  A
C2167      C2179   1.387       .  A
C2167      C2175   1.387       .  A
C2168      C2182   1.385       .  A
C2168      C2176   1.378       .  A
C2169      C2177   1.390       .  A
C2169      C2180   1.434       .  A
C2170      C2178   1.380       .  A
C2170      C2181   1.419       .  A
C2171      C2172   1.410       .  A
C2171      H2183   1.082       .  S
C2172      H2184   1.082       .  S
C2173      C2174   1.383       .  A
C2173      H2185   1.082       .  S
C2174      H2186   1.082       .  S
C2175      C2176   1.376       .  A
C2175      H2187   1.082       .  S
C2176      H2188   1.081       .  S
C2177      C2178   1.362       .  A
C2177      H2189   1.074       .  S
C2178      H2190   1.082       .  S
C2181      C2348   1.485       .  S
C2182      C2281   1.466       .  S
C2193      C2194   1.392       .  A
C2193      C2198   1.390       .  A
C2193      H2200   1.084       .  S
C2194      C2195   1.407       .  A
C2195      C2196   1.384       .  A
C2195      N2202   1.431       .  S
C2196      C2197   1.401       .  A
C2196      H2201   1.085       .  S
C2197      C2198   1.407       .  A
C2198      N2199   1.422       .  S
N2199      O2203   1.262   1_545  A
N2199      O2204   1.262       .  A
N2202      O2206   1.262       .  A
N2202      O2205   1.262       .  A
C2207      C2208   1.407       .  A
C2207      C2212   1.397       .  A
C2207      H2214   1.084   1_554  S
C2208      C2209   1.414       .  A
C2209      C2210   1.382       .  A
C2209      N2216   1.424       .  S
C2210      C2211   1.390       .  A
C2210      H2215   1.085       .  S
C2211      C2212   1.403       .  A
C2212      N2213   1.428       .  S
N2213      O2217   1.262   1_554  A
N2213      O2218   1.262       .  A
N2216      O2220   1.261       .  A
N2216      O2219   1.262       .  A
C2221      C2222   1.398       .  A
C2221      C2226   1.395       .  A
C2221      H2228   1.084       .  S
C2222      C2223   1.415       .  A
C2223      C2224   1.386       .  A
C2223      N2230   1.423       .  S
C2224      C2225   1.388       .  A
C2224      H2229   1.084       .  S
C2225      C2226   1.415       .  A
C2226      N2227   1.430       .  S
N2227      O2231   1.262       .  A
N2227      O2232   1.262       .  A
N2230      O2234   1.260       .  A
N2230      O2233   1.262       .  A
C2235      C2236   1.408       .  A
C2235      C2240   1.400       .  A
C2235      H2242   1.080       .  S
C2236      C2237   1.419       .  A
C2237      C2238   1.399       .  A
C2237      N2244   1.429       .  S
C2238      C2239   1.402       .  A
C2238      H2243   1.084       .  S
C2239      C2240   1.406       .  A
C2240      N2241   1.427       .  S
N2241      O2245   1.262       .  A
N2241      O2246   1.262       .  A
N2244      O2248   1.262       .  A
N2244      O2247   1.262       .  A
C2249      C2250   1.411       .  A
C2249      C2254   1.395       .  A
C2249      H2256   1.080       .  S
C2250      C2251   1.415       .  A
C2251      C2252   1.395       .  A
C2251      N2258   1.428       .  S
C2252      C2253   1.397       .  A
C2252      H2257   1.084       .  S
C2253      C2254   1.397       .  A
C2254      N2255   1.428       .  S
N2255      O2259   1.261       .  A
N2255      O2260   1.261       .  A
N2258      O2262   1.262       .  A
N2258      O2261   1.262       .  A
C2263      C2264   1.396       .  A
C2263      C2268   1.388       .  A
C2263      H2270   1.085       .  S
C2264      C2265   1.411       .  A
C2265      C2266   1.392       .  A
C2265      N2272   1.427   1_545  S
C2266      C2267   1.399       .  A
C2266      H2271   1.084   1_545  S
C2267      C2268   1.411       .  A
C2268      N2269   1.428       .  S
N2269      O2273   1.262       .  A
N2269      O2274   1.262       .  A
N2272      O2276   1.262       .  A
N2272      O2275   1.263       .  A
C2277      C2278   1.408       .  A
C2277      C2282   1.391       .  A
C2277      H2284   1.078       .  S
C2278      C2279   1.410       .  A
C2279      C2280   1.394       .  A
C2279      N2286   1.431       .  S
C2280      C2281   1.403       .  A
C2280      H2285   1.084       .  S
C2281      C2282   1.396       .  A
C2282      N2283   1.429       .  S
N2283      O2287   1.262       .  A
N2283      O2288   1.261       .  A
N2286      O2290   1.261   1_545  A
N2286      O2289   1.262       .  A
C2291      C2292   1.404       .  A
C2291      C2296   1.398       .  A
C2291      H2298   1.084       .  S
C2292      C2293   1.405   1_655  A
C2293      C2294   1.388       .  A
C2293      N2300   1.429       .  S
C2294      C2295   1.404       .  A
C2294      H2299   1.084       .  S
C2295      C2296   1.410   1_455  A
C2296      N2297   1.430       .  S
N2297      O2301   1.260       .  A
N2297      O2302   1.262   1_655  A
N2300      O2304   1.262       .  A
N2300      O2303   1.262   1_455  A
C2305      C2306   1.395       .  A
C2305      C2310   1.389       .  A
C2305      H2312   1.085       .  S
C2306      C2307   1.406       .  A
C2307      C2308   1.398       .  A
C2307      N2314   1.428       .  S
C2308      C2309   1.407       .  A
C2308      H2313   1.083       .  S
C2309      C2310   1.418       .  A
C2310      N2311   1.428       .  S
N2311      O2315   1.262       .  A
N2311      O2316   1.262       .  A
N2314      O2318   1.262       .  A
N2314      O2317   1.262       .  A
C2319      C2320   1.411       .  A
C2319      C2324   1.394       .  A
C2319      H2326   1.081       .  S
C2320      C2321   1.412   1_655  A
C2321      C2322   1.393       .  A
C2321      N2328   1.427       .  S
C2322      C2323   1.399       .  A
C2322      H2327   1.084       .  S
C2323      C2324   1.396   1_455  A
C2324      N2325   1.424       .  S
N2325      O2329   1.260       .  A
N2325      O2330   1.262       .  A
N2328      O2332   1.260       .  A
N2328      O2331   1.262   1_554  A
C2333      C2334   1.403       .  A
C2333      C2338   1.389       .  A
C2333      H2340   1.084       .  S
C2334      C2335   1.418       .  A
C2335      C2336   1.399       .  A
C2335      N2342   1.426       .  S
C2336      C2337   1.392       .  A
C2336      H2341   1.084       .  S
C2337      C2338   1.405       .  A
C2338      N2339   1.429       .  S
N2339      O2343   1.261       .  A
N2339      O2344   1.262       .  A
N2342      O2346   1.262       .  A
N2342      O2345   1.262   1_556  A
C2347      C2348   1.400       .  A
C2347      C2352   1.390       .  A
C2347      H2354   1.084       .  S
C2348      C2349   1.410       .  A
C2349      C2350   1.404       .  A
C2349      N2356   1.429       .  S
C2350      C2351   1.405       .  A
C2350      H2355   1.084       .  S
C2351      C2352   1.410       .  A
C2352      N2353   1.429       .  S
N2353      O2357   1.262       .  A
N2353      O2358   1.262   1_655  A
N2356      O2360   1.262       .  A
N2356      O2359   1.262   1_554  A
C2361      C2362   1.395       .  A
C2361      C2366   1.397       .  A
C2361      H2368   1.084       .  S
C2362      C2363   1.412       .  A
C2363      C2364   1.390       .  A
C2363      N2370   1.430       .  S
C2364      C2365   1.400       .  A
C2364      H2369   1.084       .  S
C2365      C2366   1.414       .  A
C2366      N2367   1.425       .  S
N2367      O2371   1.262       .  A
N2367      O2372   1.261       .  A
N2370      O2374   1.261       .  A
N2370      O2373   1.262       .  A
C2375      C2376   1.395       .  A
C2375      C2380   1.396       .  A
C2375      H2382   1.084       .  S
C2376      C2377   1.412       .  A
C2377      C2378   1.386       .  A
C2377      N2384   1.431       .  S
C2378      C2379   1.396       .  A
C2378      H2383   1.084       .  S
C2379      C2380   1.417       .  A
C2380      N2381   1.429       .  S
N2381      O2385   1.262       .  A
N2381      O2386   1.262       .  A
N2384      O2388   1.262       .  A
N2384      O2387   1.262       .  A
C2389      C2390   1.404       .  A
C2389      C2394   1.396       .  A
C2389      H2396   1.084       .  S
C2390      C2391   1.416       .  A
C2391      C2392   1.399       .  A
C2391      N2398   1.428       .  S
C2392      C2393   1.396       .  A
C2392      H2397   1.084       .  S
C2393      C2394   1.407       .  A
C2394      N2395   1.431       .  S
N2395      O2399   1.262       .  A
N2395      O2400   1.262       .  A
N2398      O2402   1.262       .  A
N2398      O2401   1.262   1_455  A
C2403      C2404   1.398       .  A
C2403      C2408   1.393       .  A
C2403      H2410   1.085       .  S
C2404      C2405   1.403       .  A
C2405      C2406   1.390       .  A
C2405      N2412   1.429       .  S
C2406      C2407   1.407       .  A
C2406      H2411   1.084       .  S
C2407      C2408   1.413       .  A
C2408      N2409   1.425       .  S
N2409      O2413   1.262       .  A
N2409      O2414   1.261       .  A
N2412      O2416   1.262       .  A
N2412      O2415   1.262       .  A
C2417      C2418   1.397       .  A
C2417      C2422   1.383       .  A
C2417      H2424   1.084       .  S
C2418      C2419   1.411       .  A
C2419      C2420   1.398       .  A
C2419      N2426   1.425       .  S
C2420      C2421   1.400       .  A
C2420      H2425   1.084       .  S
C2421      C2422   1.413       .  A
C2422      N2423   1.430       .  S
N2423      O2427   1.262       .  A
N2423      O2428   1.261       .  A
N2426      O2430   1.262       .  A
N2426      O2429   1.261       .  A
C2431      C2432   1.397       .  A
C2431      C2436   1.393       .  A
C2431      H2438   1.085       .  S
C2432      C2433   1.404       .  A
C2433      C2434   1.394       .  A
C2433      N2440   1.428       .  S
C2434      C2435   1.406       .  A
C2434      H2439   1.084       .  S
C2435      C2436   1.417       .  A
C2436      N2437   1.429   1_455  S
N2437      O2441   1.262       .  A
N2437      O2442   1.262       .  A
N2440      O2444   1.262       .  A
N2440      O2443   1.262       .  A
C2445      C2446   1.409       .  A
C2445      C2450   1.398       .  A
C2445      H2452   1.083       .  S
C2446      C2447   1.412       .  A
C2447      C2448   1.393       .  A
C2447      N2454   1.430       .  S
C2448      C2449   1.404       .  A
C2448      H2453   1.084       .  S
C2449      C2450   1.405       .  A
C2450      N2451   1.428       .  S
N2451      O2455   1.262       .  A
N2451      O2456   1.262       .  A
N2454      O2458   1.262       .  A
N2454      O2457   1.262       .  A
C2459      C2460   1.415       .  A
C2459      C2464   1.398       .  A
C2459      H2466   1.082       .  S
C2460      C2461   1.412       .  A
C2461      C2462   1.391       .  A
C2461      N2468   1.427       .  S
C2462      C2463   1.400       .  A
C2462      H2467   1.085       .  S
C2463      C2464   1.396       .  A
C2464      N2465   1.428       .  S
N2465      O2469   1.262       .  A
N2465      O2470   1.262       .  A
N2468      O2472   1.262       .  A
N2468      O2471   1.261       .  A
C2473      C2474   1.405       .  A
C2473      C2478   1.392       .  A
C2473      H2480   1.084       .  S
C2474      C2475   1.414       .  A
C2475      C2476   1.403       .  A
C2475      N2482   1.427       .  S
C2476      C2477   1.400       .  A
C2476      H2481   1.083       .  S
C2477      C2478   1.404       .  A
C2478      N2479   1.428       .  S
N2479      O2483   1.260       .  A
N2479      O2484   1.262       .  A
N2482      O2486   1.262       .  A
N2482      O2485   1.262       .  A
C2487      C2488   1.400       .  A
C2487      C2492   1.396       .  A
C2487      H2494   1.085       .  S
C2488      C2489   1.402       .  A
C2489      C2490   1.394       .  A
C2489      N2496   1.427       .  S
C2490      C2491   1.405       .  A
C2490      H2495   1.084       .  S
C2491      C2492   1.411       .  A
C2492      N2493   1.429       .  S
N2493      O2497   1.262       .  A
N2493      O2498   1.262       .  A
N2496      O2500   1.261       .  A
N2496      O2499   1.262       .  A
C2501      C2502   1.399       .  A
C2501      C2506   1.388       .  A
C2501      H2508   1.084       .  S
C2502      C2503   1.414       .  A
C2503      C2504   1.404       .  A
C2503      N2510   1.428       .  S
C2504      C2505   1.403       .  A
C2504      H2509   1.084       .  S
C2505      C2506   1.408       .  A
C2506      N2507   1.429       .  S
N2507      O2511   1.261       .  A
N2507      O2512   1.262       .  A
N2510      O2514   1.262       .  A
N2510      O2513   1.261       .  A
C2515      C2516   1.400       .  A
C2515      C2520   1.390       .  A
C2515      H2522   1.085       .  S
C2516      C2517   1.417       .  A
C2517      C2518   1.393       .  A
C2517      N2524   1.428       .  S
C2518      C2519   1.392       .  A
C2518      H2523   1.084       .  S
C2519      C2520   1.410       .  A
C2520      N2521   1.431       .  S
N2521      O2525   1.261       .  A
N2521      O2526   1.262       .  A
N2524      O2528   1.262       .  A
N2524      O2527   1.261       .  A
C2529      C2530   1.399       .  A
C2529      C2534   1.377       .  A
C2529      H2536   1.084       .  S
C2530      C2531   1.415       .  A
C2531      C2532   1.399       .  A
C2531      N2538   1.429       .  S
C2532      C2533   1.400       .  A
C2532      H2537   1.084       .  S
C2533      C2534   1.407       .  A
C2534      N2535   1.433       .  S
N2535      O2539   1.260       .  A
N2535      O2540   1.261       .  A
N2538      O2542   1.262       .  A
N2538      O2541   1.262       .  A
C2543      C2544   1.407       .  A
C2543      C2548   1.392       .  A
C2543      H2550   1.084   1_455  S
C2544      C2545   1.407       .  A
C2545      C2546   1.394       .  A
C2545      N2552   1.428       .  S
C2546      C2547   1.403       .  A
C2546      H2551   1.085       .  S
C2547      C2548   1.403       .  A
C2548      N2549   1.428   1_455  S
N2549      O2553   1.262       .  A
N2549      O2554   1.262       .  A
N2552      O2556   1.262       .  A
N2552      O2555   1.262       .  A
C2557      C2558   1.400       .  A
C2557      C2562   1.388       .  A
C2557      H2564   1.085       .  S
C2558      C2559   1.406       .  A
C2559      C2560   1.394       .  A
C2559      N2566   1.422       .  S
C2560      C2561   1.397       .  A
C2560      H2565   1.084       .  S
C2561      C2562   1.406       .  A
C2562      N2563   1.428       .  S
N2563      O2567   1.261       .  A
N2563      O2568   1.262       .  A
N2566      O2570   1.262       .  A
N2566      O2569   1.261       .  A
C2571      C2572   1.409       .  A
C2571      C2576   1.400       .  A
C2571      H2578   1.083       .  S
C2572      C2573   1.413       .  A
C2573      C2574   1.398       .  A
C2573      N2580   1.428       .  S
C2574      C2575   1.403       .  A
C2574      H2579   1.084       .  S
C2575      C2576   1.409       .  A
C2576      N2577   1.430       .  S
N2577      O2581   1.262       .  A
N2577      O2582   1.262       .  A
N2580      O2584   1.261       .  A
N2580      O2583   1.262       .  A
C2585      C2586   1.401       .  A
C2585      C2590   1.397       .  A
C2585      H2592   1.084       .  S
C2586      C2587   1.409       .  A
C2587      C2588   1.393       .  A
C2587      N2594   1.429       .  S
C2588      C2589   1.398       .  A
C2588      H2593   1.084       .  S
C2589      C2590   1.404       .  A
C2590      N2591   1.422       .  S
N2591      O2595   1.261       .  A
N2591      O2596   1.261       .  A
N2594      O2598   1.262       .  A
N2594      O2597   1.262       .  A
C2599      C2600   1.404       .  A
C2599      C2604   1.393       .  A
C2599      H2606   1.084       .  S
C2600      C2601   1.417       .  A
C2601      C2602   1.385       .  A
C2601      N2608   1.430       .  S
C2602      C2603   1.389       .  A
C2602      H2607   1.085       .  S
C2603      C2604   1.403       .  A
C2604      N2605   1.430       .  S
N2605      O2609   1.262       .  A
N2605      O2610   1.262       .  A
N2608      O2612   1.262       .  A
N2608      O2611   1.262       .  A
C2613      C2614   1.406       .  A
C2613      C2618   1.395       .  A
C2613      H2620   1.084       .  S
C2614      C2615   1.401       .  A
C2615      C2616   1.391       .  A
C2615      N2622   1.428       .  S
C2616      C2617   1.404       .  A
C2616      H2621   1.085       .  S
C2617      C2618   1.404       .  A
C2618      N2619   1.429       .  S
N2619      O2623   1.262       .  A
N2619      O2624   1.262       .  A
N2622      O2626   1.262       .  A
N2622      O2625   1.262       .  A
C2627      C2628   1.404       .  A
C2627      C2632   1.393       .  A
C2627      H2634   1.085       .  S
C2628      C2629   1.411       .  A
C2629      C2630   1.396       .  A
C2629      N2636   1.429       .  S
C2630      C2631   1.401       .  A
C2630      H2635   1.084       .  S
C2631      C2632   1.404       .  A
C2632      N2633   1.428       .  S
N2633      O2637   1.262       .  A
N2633      O2638   1.262       .  A
N2636      O2640   1.261       .  A
N2636      O2639   1.260       .  A
C2641      C2642   1.404       .  A
C2641      C2646   1.390       .  A
C2641      H2648   1.084       .  S
C2642      C2643   1.406       .  A
C2643      C2644   1.401       .  A
C2643      N2650   1.428       .  S
C2644      C2645   1.406       .  A
C2644      H2649   1.084       .  S
C2645      C2646   1.407       .  A
C2646      N2647   1.430       .  S
N2647      O2651   1.262       .  A
N2647      O2652   1.261       .  A
N2650      O2654   1.262       .  A
N2650      O2653   1.262       .  A
C2655      C2656   1.407       .  A
C2655      C2660   1.395       .  A
C2655      H2662   1.084       .  S
C2656      C2657   1.407       .  A
C2657      C2658   1.399       .  A
C2657      N2664   1.428   1_455  S
C2658      C2659   1.405       .  A
C2658      H2663   1.084       .  S
C2659      C2660   1.406       .  A
C2660      N2661   1.431       .  S
N2661      O2665   1.262       .  A
N2661      O2666   1.262       .  A
N2664      O2668   1.262       .  A
N2664      O2667   1.262       .  A
C2669      C2670   1.399       .  A
C2669      C2674   1.387       .  A
C2669      H2676   1.084       .  S
C2670      C2671   1.421       .  A
C2671      C2672   1.404       .  A
C2671      N2678   1.428       .  S
C2672      C2673   1.400       .  A
C2672      H2677   1.084       .  S
C2673      C2674   1.407       .  A
C2674      N2675   1.423       .  S
N2675      O2679   1.261       .  A
N2675      O2680   1.262       .  A
N2678      O2682   1.262       .  A
N2678      O2681   1.262       .  A
C2683      C2684   1.405       .  A
C2683      C2688   1.399       .  A
C2683      H2690   1.084       .  S
C2684      C2685   1.408       .  A
C2685      C2686   1.384       .  A
C2685      N2692   1.431       .  S
C2686      C2687   1.398       .  A
C2686      H2691   1.085       .  S
C2687      C2688   1.405       .  A
C2688      N2689   1.427       .  S
N2689      O2693   1.262       .  A
N2689      O2694   1.262       .  A
N2692      O2696   1.262       .  A
N2692      O2695   1.262       .  A
C2697      C2698   1.397       .  A
C2697      C2702   1.384       .  A
C2697      H2704   1.084       .  S
C2698      C2699   1.415       .  A
C2699      C2700   1.405       .  A
C2699      N2706   1.428       .  S
C2700      C2701   1.401       .  A
C2700      H2705   1.084       .  S
C2701      C2702   1.411       .  A
C2702      N2703   1.429       .  S
N2703      O2707   1.261       .  A
N2703      O2708   1.263       .  A
N2706      O2710   1.262       .  A
N2706      O2709   1.262       .  A
C2711      C2712   1.402       .  A
C2711      C2716   1.388       .  A
C2711      H2718   1.084       .  S
C2712      C2713   1.425       .  A
C2713      C2714   1.396       .  A
C2713      N2720   1.431       .  S
C2714      C2715   1.393       .  A
C2714      H2719   1.083       .  S
C2715      C2716   1.406       .  A
C2716      N2717   1.429       .  S
N2717      O2721   1.262       .  A
N2717      O2722   1.262       .  A
N2720      O2724   1.261       .  A
N2720      O2723   1.262       .  A
C2725      C2726   1.393       .  A
C2725      C2730   1.395       .  A
C2725      H2732   1.084       .  S
C2726      C2727   1.405       .  A
C2727      C2728   1.381       .  A
C2727      N2734   1.430       .  S
C2728      C2729   1.398       .  A
C2728      H2733   1.084       .  S
C2729      C2730   1.412       .  A
C2730      N2731   1.424       .  S
N2731      O2735   1.262       .  A
N2731      O2736   1.262       .  A
N2734      O2738   1.260       .  A
N2734      O2737   1.260       .  A
C2739      C2740   1.401       .  A
C2739      C2744   1.389       .  A
C2739      H2746   1.084       .  S
C2740      C2741   1.417       .  A
C2741      C2742   1.398       .  A
C2741      N2748   1.430       .  S
C2742      C2743   1.400       .  A
C2742      H2747   1.084       .  S
C2743      C2744   1.406       .  A
C2744      N2745   1.430       .  S
N2745      O2749   1.262       .  A
N2745      O2750   1.262       .  A
N2748      O2752   1.262       .  A
N2748      O2751   1.262       .  A
C2753      C2754   1.405       .  A
C2753      C2758   1.381       .  A
C2753      H2760   1.080       .  S
C2754      C2755   1.416       .  A
C2755      C2756   1.399       .  A
C2755      N2762   1.425       .  S
C2756      C2757   1.396       .  A
C2756      H2761   1.084       .  S
C2757      C2758   1.401       .  A
C2758      N2759   1.430       .  S
N2759      O2763   1.262       .  A
N2759      O2764   1.262       .  A
N2762      O2766   1.262       .  A
N2762      O2765   1.260       .  A
C2767      C2768   1.400       .  A
C2767      C2772   1.388       .  A
C2767      H2774   1.085       .  S
C2768      C2769   1.418       .  A
C2769      C2770   1.391       .  A
C2769      N2776   1.428       .  S
C2770      C2771   1.389       .  A
C2770      H2775   1.084       .  S
C2771      C2772   1.405       .  A
C2772      N2773   1.427       .  S
N2773      O2777   1.261       .  A
N2773      O2778   1.261       .  A
N2776      O2780   1.262       .  A
N2776      O2779   1.262       .  A
C2781      C2782   1.393       .  A
C2781      C2786   1.394       .  A
C2781      H2788   1.084       .  S
C2782      C2783   1.406       .  A
C2783      C2784   1.389       .  A
C2783      N2790   1.429       .  S
C2784      C2785   1.402       .  A
C2784      H2789   1.083       .  S
C2785      C2786   1.423       .  A
C2786      N2787   1.429   1_545  S
N2787      O2791   1.262       .  A
N2787      O2792   1.262       .  A
N2790      O2794   1.262       .  A
N2790      O2793   1.262       .  A
C2795      C2796   1.399       .  A
C2795      C2800   1.388       .  A
C2795      H2802   1.084   1_565  S
C2796      C2797   1.407       .  A
C2797      C2798   1.399       .  A
C2797      N2804   1.429       .  S
C2798      C2799   1.404       .  A
C2798      H2803   1.084       .  S
C2799      C2800   1.408       .  A
C2800      N2801   1.430       .  S
N2801      O2805   1.262       .  A
N2801      O2806   1.262       .  A
N2804      O2808   1.262       .  A
N2804      O2807   1.262       .  A
C2809      C2810   1.397       .  A
C2809      C2814   1.402       .  A
C2809      H2816   1.084       .  S
C2810      C2811   1.404       .  A
C2811      C2812   1.388       .  A
C2811      N2818   1.429       .  S
C2812      C2813   1.405       .  A
C2812      H2817   1.083       .  S
C2813      C2814   1.422       .  A
C2814      N2815   1.429       .  S
N2815      O2819   1.262       .  A
N2815      O2820   1.262       .  A
N2818      O2822   1.262       .  A
N2818      O2821   1.262       .  A
C2823      C2824   1.395       .  A
C2823      C2828   1.395       .  A
C2823      H2830   1.084       .  S
C2824      C2825   1.405       .  A
C2825      C2826   1.388       .  A
C2825      N2832   1.429       .  S
C2826      C2827   1.400       .  A
C2826      H2831   1.084       .  S
C2827      C2828   1.412       .  A
C2828      N2829   1.427       .  S
N2829      O2833   1.261       .  A
N2829      O2834   1.262       .  A
N2832      O2836   1.262       .  A
N2832      O2835   1.261       .  A
C2837      C2838   1.397       .  A
C2837      C2842   1.401   1_545  A
C2837      H2844   1.084   1_545  S
C2838      C2839   1.407       .  A
C2839      C2840   1.380       .  A
C2839      N2846   1.431       .  S
C2840      C2841   1.401       .  A
C2840      H2845   1.084       .  S
C2841      C2842   1.418   1_545  A
C2842      N2843   1.428       .  S
N2843      O2847   1.262       .  A
N2843      O2848   1.262       .  A
N2846      O2850   1.262       .  A
N2846      O2849   1.262       .  A
C2851      C2852   1.401       .  A
C2851      C2856   1.389       .  A
C2851      H2858   1.085       .  S
C2852      C2853   1.415       .  A
C2853      C2854   1.395       .  A
C2853      N2860   1.427       .  S
C2854      C2855   1.394       .  A
C2854      H2859   1.084       .  S
C2855      C2856   1.406       .  A
C2856      N2857   1.427       .  S
N2857      O2861   1.262       .  A
N2857      O2862   1.260       .  A
N2860      O2864   1.262       .  A
N2860      O2863   1.261   1_565  A
C2865      C2866   1.401       .  A
C2865      C2870   1.400       .  A
C2865      H2872   1.084       .  S
C2866      C2867   1.402       .  A
C2867      C2868   1.381       .  A
C2867      N2874   1.428       .  S
C2868      C2869   1.398       .  A
C2868      H2873   1.081       .  S
C2869      C2870   1.412       .  A
C2870      N2871   1.429       .  S
N2871      O2875   1.262       .  A
N2871      O2876   1.262       .  A
N2874      O2878   1.262       .  A
N2874      O2877   1.261       .  A
C2879      C2880   1.401       .  A
C2879      C2884   1.392       .  A
C2879      H2886   1.084       .  S
C2880      C2881   1.423       .  A
C2881      C2882   1.394       .  A
C2881      N2888   1.428       .  S
C2882      C2883   1.391       .  A
C2882      H2887   1.084       .  S
C2883      C2884   1.410       .  A
C2884      N2885   1.429       .  S
N2885      O2889   1.262       .  A
N2885      O2890   1.262       .  A
N2888      O2892   1.262       .  A
N2888      O2891   1.262       .  A
C2893      C2894   1.411       .  A
C2893      C2898   1.396       .  A
C2893      H2900   1.084       .  S
C2894      C2895   1.412       .  A
C2895      C2896   1.397       .  A
C2895      N2902   1.428       .  S
C2896      C2897   1.406       .  A
C2896      H2901   1.085       .  S
C2897      C2898   1.402       .  A
C2898      N2899   1.428       .  S
N2899      O2903   1.262       .  A
N2899      O2904   1.262       .  A
N2902      O2906   1.262       .  A
N2902      O2905   1.261       .  A
C2907      C2908   1.402       .  A
C2907      C2912   1.395       .  A
C2907      H2914   1.084       .  S
C2908      C2909   1.407       .  A
C2909      C2910   1.392       .  A
C2909      N2916   1.428       .  S
C2910      C2911   1.399       .  A
C2910      H2915   1.085       .  S
C2911      C2912   1.400       .  A
C2912      N2913   1.426       .  S
N2913      O2917   1.262   1_554  A
N2913      O2918   1.261   1_554  A
N2916      O2920   1.262       .  A
N2916      O2919   1.262       .  A
C2921      C2922   1.402       .  A
C2921      C2926   1.405       .  A
C2921      H2928   1.084       .  S
C2922      C2923   1.409       .  A
C2923      C2924   1.388       .  A
C2923      N2930   1.430   1_556  S
C2924      C2925   1.405       .  A
C2924      H2929   1.083       .  S
C2925      C2926   1.419       .  A
C2926      N2927   1.430       .  S
N2927      O2931   1.262       .  A
N2927      O2932   1.262       .  A
N2930      O2934   1.262       .  A
N2930      O2933   1.262       .  A
C2935      C2936   1.405       .  A
C2935      C2940   1.391       .  A
C2935      H2942   1.083       .  S
C2936      C2937   1.423       .  A
C2937      C2938   1.394       .  A
C2937      N2944   1.428   1_554  S
C2938      C2939   1.391       .  A
C2938      H2943   1.084   1_554  S
C2939      C2940   1.408       .  A
C2940      N2941   1.431       .  S
N2941      O2945   1.262       .  A
N2941      O2946   1.262       .  A
N2944      O2948   1.262       .  A
N2944      O2947   1.262       .  A
C2949      C2950   1.403       .  A
C2949      C2954   1.383       .  A
C2949      H2956   1.083       .  S
C2950      C2951   1.421       .  A
C2951      C2952   1.401       .  A
C2951      N2958   1.428       .  S
C2952      C2953   1.396       .  A
C2952      H2957   1.084       .  S
C2953      C2954   1.406       .  A
C2954      N2955   1.430       .  S
N2955      O2959   1.262       .  A
N2955      O2960   1.261       .  A
N2958      O2962   1.262       .  A
N2958      O2961   1.262       .  A
C2963      C2964   1.394       .  A
C2963      C2968   1.390       .  A
C2963      H2970   1.085       .  S
C2964      C2965   1.404       .  A
C2965      C2966   1.395       .  A
C2965      N2972   1.428   1_556  S
C2966      C2967   1.403       .  A
C2966      H2971   1.084       .  S
C2967      C2968   1.414       .  A
C2968      N2969   1.427       .  S
N2969      O2973   1.262       .  A
N2969      O2974   1.260       .  A
N2972      O2976   1.262       .  A
N2972      O2975   1.262       .  A
C2977      C2978   1.407       .  A
C2977      C2982   1.399       .  A
C2977      H2984   1.083       .  S
C2978      C2979   1.412       .  A
C2979      C2980   1.389       .  A
C2979      N2986   1.430       .  S
C2980      C2981   1.400       .  A
C2980      H2985   1.085       .  S
C2981      C2982   1.405       .  A
C2982      N2983   1.428       .  S
N2983      O2987   1.261       .  A
N2983      O2988   1.262       .  A
N2986      O2990   1.262       .  A
N2986      O2989   1.262       .  A
C2991      C2992   1.402       .  A
C2991      C2996   1.392       .  A
C2991      H2998   1.085       .  S
C2992      C2993   1.414       .  A
C2993      C2994   1.393       .  A
C2993      N3000   1.427       .  S
C2994      C2995   1.394       .  A
C2994      H2999   1.084       .  S
C2995      C2996   1.409       .  A
C2996      N2997   1.430       .  S
N2997      O3001   1.262       .  A
N2997      O3002   1.262       .  A
N3000      O3004   1.262       .  A
N3000      O3003   1.262       .  A
C3005      C3006   1.404       .  A
C3005      C3010   1.395       .  A
C3005      H3012   1.084       .  S
C3006      C3007   1.427       .  A
C3007      C3008   1.393       .  A
C3007      N3014   1.428       .  S
C3008      C3009   1.388       .  A
C3008      H3013   1.084       .  S
C3009      C3010   1.413       .  A
C3010      N3011   1.431       .  S
N3011      O3015   1.261       .  A
N3011      O3016   1.262       .  A
N3014      O3018   1.261       .  A
N3014      O3017   1.262       .  A
C3019      C3020   1.400       .  A
C3019      C3024   1.385       .  A
C3019      H3026   1.080       .  S
C3020      C3021   1.410       .  A
C3021      C3022   1.404       .  A
C3021      N3028   1.428       .  S
C3022      C3023   1.405       .  A
C3022      H3027   1.084       .  S
C3023      C3024   1.408       .  A
C3024      N3025   1.431       .  S
N3025      O3029   1.262       .  A
N3025      O3030   1.262       .  A
N3028      O3032   1.262       .  A
N3028      O3031   1.262       .  A
C3033      C3034   1.400       .  A
C3033      C3038   1.387   1_554  A
C3033      H3040   1.085       .  S
C3034      C3035   1.416       .  A
C3035      C3036   1.403   1_554  A
C3035      N3042   1.428       .  S
C3036      C3037   1.399       .  A
C3036      H3041   1.084       .  S
C3037      C3038   1.406       .  A
C3038      N3039   1.427       .  S
N3039      O3043   1.262       .  A
N3039      O3044   1.260       .  A
N3042      O3046   1.262       .  A
N3042      O3045   1.262       .  A
C3047      C3048   1.407       .  A
C3047      C3052   1.393       .  A
C3047      H3054   1.084       .  S
C3048      C3049   1.402       .  A
C3049      C3050   1.388       .  A
C3049      N3056   1.428   1_556  S
C3050      C3051   1.406       .  A
C3050      H3055   1.084       .  S
C3051      C3052   1.405       .  A
C3052      N3053   1.430       .  S
N3053      O3057   1.261       .  A
N3053      O3058   1.262       .  A
N3056      O3060   1.260       .  A
N3056      O3059   1.262       .  A
C3061      C3062   1.400       .  A
C3061      C3066   1.386       .  A
C3061      H3068   1.084       .  S
C3062      C3063   1.421       .  A
C3063      C3064   1.397       .  A
C3063      N3070   1.426       .  S
C3064      C3065   1.392       .  A
C3064      H3069   1.084       .  S
C3065      C3066   1.411       .  A
C3066      N3067   1.431       .  S
N3067      O3071   1.262       .  A
N3067      O3072   1.261       .  A
N3070      O3074   1.262       .  A
N3070      O3073   1.262       .  A
C3075      C3076   1.408       .  A
C3075      C3080   1.392       .  A
C3075      H3082   1.084       .  S
C3076      C3077   1.415       .  A
C3077      C3078   1.393       .  A
C3077      N3084   1.427       .  S
C3078      C3079   1.392       .  A
C3078      H3083   1.084       .  S
C3079      C3080   1.404       .  A
C3080      N3081   1.431       .  S
N3081      O3085   1.262       .  A
N3081      O3086   1.261       .  A
N3084      O3088   1.262       .  A
N3084      O3087   1.262       .  A
C3089      C3090   1.398       .  A
C3089      C3094   1.386       .  A
C3089      H3096   1.082       .  S
C3090      C3091   1.409       .  A
C3091      C3092   1.402       .  A
C3091      N3098   1.429       .  S
C3092      C3093   1.407       .  A
C3092      H3097   1.084       .  S
C3093      C3094   1.409       .  A
C3094      N3095   1.430       .  S
N3095      O3099   1.262       .  A
N3095      O3100   1.262       .  A
N3098      O3102   1.262       .  A
N3098      O3101   1.262       .  A
C3103      C3104   1.416       .  A
C3103      C3108   1.392       .  A
C3103      H3110   1.083       .  S
C3104      C3105   1.411       .  A
C3105      C3106   1.391       .  A
C3105      N3112   1.429       .  S
C3106      C3107   1.405       .  A
C3106      H3111   1.085       .  S
C3107      C3108   1.398       .  A
C3108      N3109   1.429       .  S
N3109      O3113   1.262       .  A
N3109      O3114   1.262       .  A
N3112      O3116   1.262       .  A
N3112      O3115   1.262       .  A
C3117      C3118   1.406       .  A
C3117      C3122   1.387       .  A
C3117      H3124   1.083       .  S
C3118      C3119   1.417       .  A
C3119      C3120   1.401       .  A
C3119      N3126   1.428       .  S
C3120      C3121   1.400       .  A
C3120      H3125   1.084       .  S
C3121      C3122   1.406       .  A
C3122      N3123   1.430       .  S
N3123      O3127   1.262       .  A
N3123      O3128   1.262       .  A
N3126      O3130   1.262       .  A
N3126      O3129   1.262       .  A
C3131      C3132   1.405       .  A
C3131      C3136   1.396       .  A
C3131      H3138   1.084       .  S
C3132      C3133   1.413       .  A
C3133      C3134   1.389       .  A
C3133      N3140   1.426       .  S
C3134      C3135   1.394       .  A
C3134      H3139   1.083       .  S
C3135      C3136   1.405       .  A
C3136      N3137   1.428       .  S
N3137      O3141   1.261       .  A
N3137      O3142   1.261       .  A
N3140      O3144   1.261   1_554  A
N3140      O3143   1.262       .  A
C3145      C3146   1.398       .  A
C3145      C3150   1.393       .  A
C3145      H3152   1.084       .  S
C3146      C3147   1.413   1_556  A
C3147      C3148   1.395       .  A
C3147      N3154   1.429       .  S
C3148      C3149   1.395   1_554  A
C3148      H3153   1.084       .  S
C3149      C3150   1.414       .  A
C3150      N3151   1.430       .  S
N3151      O3155   1.261       .  A
N3151      O3156   1.261       .  A
N3154      O3158   1.261       .  A
N3154      O3157   1.261       .  A
C3159      C3160   1.404       .  A
C3159      C3164   1.390       .  A
C3159      H3166   1.084       .  S
C3160      C3161   1.416       .  A
C3161      C3162   1.398       .  A
C3161      N3168   1.425       .  S
C3162      C3163   1.397       .  A
C3162      H3167   1.084       .  S
C3163      C3164   1.405       .  A
C3164      N3165   1.428       .  S
N3165      O3169   1.262       .  A
N3165      O3170   1.262       .  A
N3168      O3172   1.262       .  A
N3168      O3171   1.262       .  A
C3173      C3174   1.402       .  A
C3173      C3178   1.396       .  A
C3173      H3180   1.084       .  S
C3174      C3175   1.410       .  A
C3175      C3176   1.392       .  A
C3175      N3182   1.429       .  S
C3176      C3177   1.397       .  A
C3176      H3181   1.085       .  S
C3177      C3178   1.401       .  A
C3178      N3179   1.424       .  S
N3179      O3183   1.262       .  A
N3179      O3184   1.259       .  A
N3182      O3186   1.262       .  A
N3182      O3185   1.262       .  A
C3187      C3188   1.407       .  A
C3187      C3192   1.390       .  A
C3187      H3194   1.083       .  S
C3188      C3189   1.410       .  A
C3189      C3190   1.390       .  A
C3189      N3196   1.427       .  S
C3190      C3191   1.397       .  A
C3190      H3195   1.085       .  S
C3191      C3192   1.402       .  A
C3192      N3193   1.429       .  S
N3193      O3197   1.262       .  A
N3193      O3198   1.262       .  A
N3196      O3200   1.262       .  A
N3196      O3199   1.261       .  A
C3201      C3202   1.407       .  A
C3201      C3206   1.391       .  A
C3201      H3208   1.084       .  S
C3202      C3203   1.405       .  A
C3203      C3204   1.383       .  A
C3203      N3210   1.426       .  S
C3204      C3205   1.398       .  A
C3204      H3209   1.085       .  S
C3205      C3206   1.400       .  A
C3206      N3207   1.428       .  S
N3207      O3211   1.261       .  A
N3207      O3212   1.262       .  A
N3210      O3214   1.262       .  A
N3210      O3213   1.262       .  A
C3215      C3216   1.406       .  A
C3215      C3220   1.385       .  A
C3215      H3222   1.081       .  S
C3216      C3217   1.409       .  A
C3217      C3218   1.393       .  A
C3217      N3224   1.430   1_565  S
C3218      C3219   1.401       .  A
C3218      H3223   1.084       .  S
C3219      C3220   1.398       .  A
C3220      N3221   1.428       .  S
N3221      O3225   1.261       .  A
N3221      O3226   1.262       .  A
N3224      O3228   1.261       .  A
N3224      O3227   1.262       .  A
C3229      C3230   1.399       .  A
C3229      C3234   1.390       .  A
C3229      H3236   1.084       .  S
C3230      C3231   1.416       .  A
C3231      C3232   1.397       .  A
C3231      N3238   1.428       .  S
C3232      C3233   1.394       .  A
C3232      H3237   1.084       .  S
C3233      C3234   1.410       .  A
C3234      N3235   1.430       .  S
N3235      O3239   1.262       .  A
N3235      O3240   1.261       .  A
N3238      O3242   1.261       .  A
N3238      O3241   1.262       .  A
C3243      C3244   1.391       .  A
C3243      C3248   1.394       .  A
C3243      H3250   1.085   1_565  S
C3244      C3245   1.411       .  A
C3245      C3246   1.394       .  A
C3245      N3252   1.429       .  S
C3246      C3247   1.400       .  A
C3246      H3251   1.084       .  S
C3247      C3248   1.412       .  A
C3248      N3249   1.422       .  S
N3249      O3253   1.259   1_565  A
N3249      O3254   1.262       .  A
N3252      O3256   1.262       .  A
N3252      O3255   1.262       .  A
C3257      C3258   1.397       .  A
C3257      C3262   1.388       .  A
C3257      H3264   1.085       .  S
C3258      C3259   1.403       .  A
C3259      C3260   1.393       .  A
C3259      N3266   1.429       .  S
C3260      C3261   1.407       .  A
C3260      H3265   1.084       .  S
C3261      C3262   1.413       .  A
C3262      N3263   1.429       .  S
N3263      O3267   1.261       .  A
N3263      O3268   1.262       .  A
N3266      O3270   1.262       .  A
N3266      O3269   1.262       .  A
C3271      C3272   1.407       .  A
C3271      C3276   1.404       .  A
C3271      H3278   1.084       .  S
C3272      C3273   1.414       .  A
C3273      C3274   1.396       .  A
C3273      N3280   1.430   1_565  S
C3274      C3275   1.399       .  A
C3274      H3279   1.084       .  S
C3275      C3276   1.404       .  A
C3276      N3277   1.428       .  S
N3277      O3281   1.262       .  A
N3277      O3282   1.262       .  A
N3280      O3284   1.262       .  A
N3280      O3283   1.262       .  A
C3285      C3286   1.396   1_565  A
C3285      C3290   1.390       .  A
C3285      H3292   1.084       .  S
C3286      C3287   1.416       .  A
C3287      C3288   1.397       .  A
C3287      N3294   1.429       .  S
C3288      C3289   1.396   1_545  A
C3288      H3293   1.084       .  S
C3289      C3290   1.413       .  A
C3290      N3291   1.430       .  S
N3291      O3295   1.262       .  A
N3291      O3296   1.262       .  A
N3294      O3298   1.261       .  A
N3294      O3297   1.260       .  A
C3299      C3300   1.396       .  A
C3299      C3304   1.392       .  A
C3299      H3306   1.084       .  S
C3300      C3301   1.406       .  A
C3301      C3302   1.391       .  A
C3301      N3308   1.422       .  S
C3302      C3303   1.397       .  A
C3302      H3307   1.083       .  S
C3303      C3304   1.416       .  A
C3304      N3305   1.429       .  S
N3305      O3309   1.262   1_545  A
N3305      O3310   1.261       .  A
N3308      O3312   1.258       .  A
N3308      O3311   1.261       .  A
C3313      C3314   1.396       .  A
C3313      C3318   1.393       .  A
C3313      H3320   1.084       .  S
C3314      C3315   1.398       .  A
C3315      C3316   1.383       .  A
C3315      N3322   1.429       .  S
C3316      C3317   1.405       .  A
C3316      H3321   1.082       .  S
C3317      C3318   1.413       .  A
C3318      N3319   1.425       .  S
N3319      O3323   1.262       .  A
N3319      O3324   1.262       .  A
N3322      O3326   1.261       .  A
N3322      O3325   1.262       .  A
C3327      C3328   1.404       .  A
C3327      C3332   1.394       .  A
C3327      H3334   1.084       .  S
C3328      C3329   1.411       .  A
C3329      C3330   1.398       .  A
C3329      N3336   1.428       .  S
C3330      C3331   1.398       .  A
C3330      H3335   1.084       .  S
C3331      C3332   1.406       .  A
C3332      N3333   1.431       .  S
N3333      O3337   1.262       .  A
N3333      O3338   1.262       .  A
N3336      O3340   1.262       .  A
N3336      O3339   1.262       .  A
C3341      C3342   1.406       .  A
C3341      C3346   1.405       .  A
C3341      H3348   1.084       .  S
C3342      C3343   1.408       .  A
C3343      C3344   1.394       .  A
C3343      N3350   1.425       .  S
C3344      C3345   1.402       .  A
C3344      H3349   1.084       .  S
C3345      C3346   1.409       .  A
C3346      N3347   1.427       .  S
N3347      O3351   1.262       .  A
N3347      O3352   1.261       .  A
N3350      O3354   1.262       .  A
N3350      O3353   1.262       .  A
C3355      C3356   1.403       .  A
C3355      C3360   1.397       .  A
C3355      H3362   1.085       .  S
C3356      C3357   1.398       .  A
C3357      C3358   1.396       .  A
C3357      N3364   1.428       .  S
C3358      C3359   1.416       .  A
C3358      H3363   1.083       .  S
C3359      C3360   1.414       .  A
C3360      N3361   1.426       .  S
N3361      O3365   1.262       .  A
N3361      O3366   1.262       .  A
N3364      O3368   1.262       .  A
N3364      O3367   1.262       .  A
C3369      C3370   1.405   1_545  A
C3369      C3374   1.398       .  A
C3369      H3376   1.084       .  S
C3370      C3371   1.408       .  A
C3371      C3372   1.394       .  A
C3371      N3378   1.430       .  S
C3372      C3373   1.405       .  A
C3372      H3377   1.084       .  S
C3373      C3374   1.405   1_565  A
C3374      N3375   1.427       .  S
N3375      O3379   1.262       .  A
N3375      O3380   1.262       .  A
N3378      O3382   1.262       .  A
N3378      O3381   1.262       .  A
C3383      C3384   1.406       .  A
C3383      C3388   1.396       .  A
C3383      H3390   1.084       .  S
C3384      C3385   1.410       .  A
C3385      C3386   1.384       .  A
C3385      N3392   1.424       .  S
C3386      C3387   1.393       .  A
C3386      H3391   1.085       .  S
C3387      C3388   1.403       .  A
C3388      N3389   1.427       .  S
N3389      O3393   1.262       .  A
N3389      O3394   1.261       .  A
N3392      O3396   1.262       .  A
N3392      O3395   1.262   1_455  A
C3397      C3398   1.404   1_655  A
C3397      C3402   1.391       .  A
C3397      H3404   1.084       .  S
C3398      C3399   1.415   1_455  A
C3399      C3400   1.393       .  A
C3399      N3406   1.421   1_655  S
C3400      C3401   1.389       .  A
C3400      H3405   1.084       .  S
C3401      C3402   1.403       .  A
C3402      N3403   1.425       .  S
N3403      O3407   1.259       .  A
N3403      O3408   1.262       .  A
N3406      O3410   1.262   1_455  A
N3406      O3409   1.262       .  A
C3411      C3412   1.403       .  A
C3411      C3416   1.381       .  A
C3411      H3418   1.077       .  S
C3412      C3413   1.411       .  A
C3413      C3414   1.387       .  A
C3413      N3420   1.430       .  S
C3414      C3415   1.399       .  A
C3414      H3419   1.085       .  S
C3415      C3416   1.395       .  A
C3416      N3417   1.428       .  S
N3417      O3421   1.262       .  A
N3417      O3422   1.262       .  A
N3420      O3424   1.262       .  A
N3420      O3423   1.262       .  A
C3425      C3426   1.400       .  A
C3425      C3430   1.400       .  A
C3425      H3432   1.084   1_655  S
C3426      C3427   1.417       .  A
C3427      C3428   1.385       .  A
C3427      N3434   1.429       .  S
C3428      C3429   1.392       .  A
C3428      H3433   1.085       .  S
C3429      C3430   1.411       .  A
C3430      N3431   1.425       .  S
N3431      O3435   1.257   1_655  A
N3431      O3436   1.261       .  A
N3434      O3438   1.262       .  A
N3434      O3437   1.262       .  A
C3439      C3440   1.396       .  A
C3439      C3444   1.393       .  A
C3439      H3446   1.085       .  S
C3440      C3441   1.413       .  A
C3441      C3442   1.396       .  A
C3441      N3448   1.429       .  S
C3442      C3443   1.396       .  A
C3442      H3447   1.084       .  S
C3443      C3444   1.419       .  A
C3444      N3445   1.431       .  S
N3445      O3449   1.262       .  A
N3445      O3450   1.262       .  A
N3448      O3452   1.261       .  A
N3448      O3451   1.261       .  A
C3453      C3454   1.412       .  A
C3453      C3458   1.404       .  A
C3453      H3460   1.084       .  S
C3454      C3455   1.415       .  A
C3455      C3456   1.385       .  A
C3455      N3462   1.424       .  S
C3456      C3457   1.388       .  A
C3456      H3461   1.085       .  S
C3457      C3458   1.401       .  A
C3458      N3459   1.425       .  S
N3459      O3463   1.261       .  A
N3459      O3464   1.257       .  A
N3462      O3466   1.263       .  A
N3462      O3465   1.262   1_545  A
C3467      C3468   1.408       .  A
C3467      C3472   1.396       .  A
C3467      H3474   1.084       .  S
C3468      C3469   1.423       .  A
C3469      C3470   1.404       .  A
C3469      N3476   1.428   1_556  S
C3470      C3471   1.396       .  A
C3470      H3475   1.084       .  S
C3471      C3472   1.405       .  A
C3472      N3473   1.429       .  S
N3473      O3477   1.261       .  A
N3473      O3478   1.261       .  A
N3476      O3480   1.262       .  A
N3476      O3479   1.262       .  A
C3481      C3482   1.407       .  A
C3481      C3486   1.393       .  A
C3481      H3488   1.083       .  S
C3482      C3483   1.423   1_565  A
C3483      C3484   1.393   1_545  A
C3483      N3490   1.420       .  S
C3484      C3485   1.383       .  A
C3484      H3489   1.085   1_565  S
C3485      C3486   1.406       .  A
C3486      N3487   1.430       .  S
N3487      O3491   1.262       .  A
N3487      O3492   1.262       .  A
N3490      O3494   1.262       .  A
N3490      O3493   1.262       .  A
C3495      C3496   1.404       .  A
C3495      C3500   1.388       .  A
C3495      H3502   1.084       .  S
C3496      C3497   1.417       .  A
C3497      C3498   1.400       .  A
C3497      N3504   1.426       .  S
C3498      C3499   1.396       .  A
C3498      H3503   1.084       .  S
C3499      C3500   1.404       .  A
C3500      N3501   1.426       .  S
N3501      O3505   1.262       .  A
N3501      O3506   1.259       .  A
N3504      O3508   1.261       .  A
N3504      O3507   1.262       .  A
C3509      C3510   1.409       .  A
C3509      C3514   1.401       .  A
C3509      H3516   1.084       .  S
C3510      C3511   1.410       .  A
C3511      C3512   1.390       .  A
C3511      N3518   1.429       .  S
C3512      C3513   1.401       .  A
C3512      H3517   1.085       .  S
C3513      C3514   1.406       .  A
C3514      N3515   1.428       .  S
N3515      O3519   1.262       .  A
N3515      O3520   1.262       .  A
N3518      O3522   1.262       .  A
N3518      O3521   1.262       .  A
C3523      C3524   1.410       .  A
C3523      C3528   1.396       .  A
C3523      H3530   1.084       .  S
C3524      C3525   1.409       .  A
C3525      C3526   1.392       .  A
C3525      N3532   1.428       .  S
C3526      C3527   1.405       .  A
C3526      H3531   1.084       .  S
C3527      C3528   1.404       .  A
C3528      N3529   1.429       .  S
N3529      O3533   1.262       .  A
N3529      O3534   1.262       .  A
N3532      O3536   1.261       .  A
N3532      O3535   1.262       .  A
