geometry optimzed in LAMMPS
_audit_creation_date              2020-11-30 
_audit_creation_method            'lammps2cif' 
_symmetry_space_group_name_H-M    'P1' 
_symmetry_Int_Tables_number       1 
_symmetry_cell_setting            triclinic 
loop_ 
_symmetry_equiv_pos_as_xyz 
  x,y,z 
_cell_length_a                    54.39865097 
_cell_length_b                    53.9434236850212 
_cell_length_c                    53.543087853068506 
_cell_angle_alpha                 89.74126707579774 
_cell_angle_beta                  89.6620142763061 
_cell_angle_gamma                 90.14159511593066 
loop_ 
_atom_site_label 
_atom_site_type_symbol 
_atom_site_fract_x 
_atom_site_fract_y 
_atom_site_fract_z 
_atom_site_charge 
O1          O  0.51831222  0.96496444  0.48275973    -0.79700
O2          O  0.44940768  0.96314086  0.49246749    -0.79800
O3          O  0.50698902  0.98156749  0.55062118    -0.79800
O4          O  0.47714591  0.98518644  0.44493821    -0.79700
O5          O  0.48151437  0.95566334  0.53201526    -0.79800
O6          O  0.51690100  0.98874861  0.43702702    -0.79700
O7          O  0.43545879  0.99440570  0.47114634    -0.79700
O8          O  0.53843057  0.98550582  0.51199576    -0.79800
C9          C  0.53674563  0.96716625  0.49694842     1.10000
C10         C  0.43259923  0.97253786  0.47936241     1.09800
C11         C  0.49782255  0.96001840  0.54823822     1.10000
C12         C  0.49566716  0.98242019  0.42990586     1.09900
O13         O  0.49726883  0.03141369  0.45477996    -0.79700
O14         O  0.46430599  0.00054998  0.55462658    -0.79800
O15         O  0.52232797  0.03723983  0.50448871    -0.79700
O16         O  0.45461274  0.03788348  0.49386800    -0.79700
O17         O  0.43365858  0.00966405  0.51544329    -0.79800
O18         O  0.53797646  0.01370990  0.47578372    -0.79700
O19         O  0.45841646  0.03083880  0.44256289    -0.79700
O20         O  0.48908617  0.03116452  0.54362748    -0.79800
Co21       Co  0.50557546  0.99650127  0.46978992     1.51500
Co22       Co  0.45887719  0.98264492  0.52202630     1.51700
Co23       Co  0.51255664  0.00903503  0.52604762     1.51600
Co24       Co  0.46794707  0.01235646  0.47144220     1.51500
O25         O  0.48607930  0.99920288  0.50155471    -1.41700
C26         C  0.48012681  0.03927558  0.44020452     1.09900
C27         C  0.47377274  0.02170611  0.55888804     1.10000
C28         C  0.53965693  0.03267583  0.48952361     1.09900
C29         C  0.43571718  0.03158163  0.50635190     1.09900
O30         O  0.01586308  0.54363579  0.48107502    -0.79700
O31         O  0.03173149  0.44247221  0.51267946    -0.79800
O32         O  0.04518546  0.49106616  0.54136471    -0.79800
O33         O  0.04182683  0.47977220  0.46919287    -0.79700
O34         O  0.01777568  0.46533290  0.55570038    -0.79800
O35         O  0.01647836  0.50530080  0.44966596    -0.79700
O36         O  0.02637992  0.43082044  0.47338924    -0.79700
O37         O  0.04540167  0.52921880  0.50534689    -0.79800
C38         C  0.03809073  0.54396994  0.48836923     1.10000
C39         C  0.03575968  0.42699481  0.49473424     1.09800
C40         C  0.03744806  0.47733158  0.55890846     1.10000
C41         C  0.03694375  0.49368309  0.45074552     1.09900
O42         O  0.96791170  0.48963290  0.46888276    -0.79700
O43         O  0.97156536  0.47949830  0.53740012    -0.79800
O44         O  0.99877475  0.54484109  0.52443989    -0.79700
O45         O  0.98317904  0.44061911  0.49496884    -0.79700
O46         O  0.98819242  0.43093708  0.53463547    -0.79800
O47         O  0.96885511  0.52958393  0.50156085    -0.79700
O48         O  0.99459467  0.46507115  0.45186906    -0.79700
O49         O  0.99594752  0.50641585  0.55663586    -0.79800
Co50       Co  0.99235164  0.51543695  0.47699009     1.51500
Co51       Co  0.00014877  0.46222709  0.52309873     1.51700
Co52       Co  0.02117299  0.51617237  0.53017297     1.51600
Co53       Co  0.01370853  0.46195407  0.48406606     1.51500
O54         O  0.00701491  0.49324080  0.50363114    -1.41700
C55         C  0.97425308  0.47644060  0.45063016     1.09900
C56         C  0.97594027  0.49385789  0.55559813     1.10000
C57         C  0.97681362  0.54573191  0.51662573     1.09900
C58         C  0.98024546  0.42514887  0.51329372     1.09900
O59         O  0.47894125  0.50111214  0.96037369    -0.79700
O60         O  0.54648696  0.51057607  0.96119416    -0.79800
O61         O  0.50519286  0.54979409  0.96991435    -0.79800
O62         O  0.53523563  0.44807943  0.99331734    -0.79700
O63         O  0.54441368  0.56021665  0.97310162    -0.79800
O64         O  0.51125269  0.46146379  0.96310454    -0.79700
O65         O  0.56683352  0.48686887  0.98780490    -0.79700
O66         O  0.46267054  0.52746085  0.98586199    -0.79800
C67         C  0.46103592  0.51467115  0.96613082     1.10000
C68         C  0.56533770  0.49798257  0.96667587     1.09800
C69         C  0.52340183  0.56420877  0.96394845     1.10000
C70         C  0.52605300  0.44548592  0.97170551     1.09900
O71         O  0.49269284  0.45034646  0.01205930    -0.79700
O72         O  0.52412452  0.55405739  0.01854259    -0.79800
O73         O  0.48186700  0.51716670  0.03416267    -0.79700
O74         O  0.55160857  0.50533902  0.03667614    -0.79700
O75         O  0.56546015  0.52911749  0.00685595    -0.79800
O76         O  0.46192096  0.48926514  0.01164819    -0.79700
O77         O  0.51756191  0.46632775  0.04024664    -0.79700
O78         O  0.48519115  0.56440131  0.01373929    -0.79800
Co79       Co  0.48779986  0.47716876  0.98677934     1.51500
Co80       Co  0.53328422  0.53060129  0.98877058     1.51700
Co81       Co  0.49535326  0.53208477  0.00352537     1.51600
Co82       Co  0.54107004  0.47834416  0.01423258     1.51500
O83         O  0.51435167  0.50027133  0.99918688    -1.41700
C84         C  0.50181030  0.45019265  0.03387023     1.09900
C85         C  0.50646313  0.56980851  0.02164423     1.10000
C86         C  0.46357082  0.50293957  0.03110577     1.09900
C87         C  0.56848690  0.51905636  0.02797622     1.09900
C88         C  0.55093542  0.92394594  0.72444438     0.80600
N89         N  0.56910716  0.90757915  0.73000225    -0.77700
C90         C  0.57828362  0.90619230  0.75353082     0.83100
N91         N  0.56933894  0.92147664  0.77143635    -0.77600
C92         C  0.55117828  0.93792131  0.76614227     0.83200
N93         N  0.54192483  0.93898003  0.74263821    -0.79300
C94         C  0.74323750  0.74813285  0.77208288     0.80600
N95         N  0.72500740  0.76516125  0.76954794    -0.77700
C96         C  0.72406571  0.77980002  0.74880970     0.83100
N97         N  0.74147400  0.77735596  0.73073724    -0.77600
C98         C  0.76002658  0.76084033  0.73335976     0.83200
N99         N  0.76079910  0.74614175  0.75399979    -0.79300
C100        C  0.92980757  0.71905219  0.58760182     0.80600
N101        N  0.94427565  0.73720978  0.57758382    -0.77700
C102        C  0.94246005  0.76094603  0.58598048     0.83100
N103        N  0.92594173  0.76638305  0.60441169    -0.77600
C104        C  0.91120914  0.74835742  0.61418333     0.83200
N105        N  0.91345632  0.72476462  0.60584499    -0.79300
C106        C  0.78035633  0.58138195  0.92506081     0.80600
N107        N  0.76200132  0.56628030  0.93363503    -0.77700
C108        C  0.73892150  0.56815722  0.92397824     0.83100
N109        N  0.73442602  0.58511251  0.90566485    -0.77600
C110        C  0.75255562  0.60042585  0.89738689     0.83200
N111        N  0.77543989  0.59836159  0.90704467    -0.79300
C112        C  0.26481404  0.23681476  0.74509074     0.80600
N113        N  0.24595476  0.23511206  0.72858529    -0.77700
C114        C  0.22986856  0.25413987  0.72575472     0.83100
N115        N  0.23249324  0.27474605  0.73991169    -0.77600
C116        C  0.25120999  0.27681498  0.75646743     0.83200
N117        N  0.26740901  0.25773229  0.75910478    -0.79300
C118        C  0.28628441  0.44312405  0.92455652     0.80600
N119        N  0.26277382  0.44527045  0.93340397    -0.77700
C120        C  0.24429933  0.43156188  0.92321409     0.83100
N121        N  0.24952159  0.41573197  0.90431963    -0.77600
C122        C  0.27279407  0.41318176  0.89544292     0.83200
N123        N  0.29113862  0.42694847  0.90562423    -0.79300
C124        C  0.41156873  0.06646135  0.78754716     0.80600
N125        N  0.42261063  0.05585776  0.76725381    -0.77700
C126        C  0.42042883  0.06634289  0.74412497     0.83100
N127        N  0.40709157  0.08748147  0.74149010    -0.77600
C128        C  0.39572732  0.09801979  0.76141132     0.83200
N129        N  0.39805538  0.08745965  0.78440745    -0.79300
C130        C  0.06652087  0.20722894  0.57086413     0.80600
N131        N  0.08593116  0.21005537  0.58657709    -0.77700
C132        C  0.09852577  0.23189843  0.58724618     0.83100
N133        N  0.09156985  0.25089975  0.57217478    -0.77600
C134        C  0.07194328  0.24849781  0.55676938     0.83200
N135        N  0.05958665  0.22658289  0.55609483    -0.79300
O136        O  0.53716322  0.99843615  0.95702617    -0.79700
O137        O  0.53325980  0.00537103  0.05001490    -0.79800
O138        O  0.52850065  0.04900367  0.98062202    -0.79800
O139        O  0.52468673  0.95459102  0.02507484    -0.79700
O140        O  0.54686525  0.04080157  0.01561178    -0.79800
O141        O  0.54601877  0.96194853  0.99145483    -0.79700
O142        O  0.50179472  0.98121442  0.05775537    -0.79700
O143        O  0.50757900  0.02346457  0.94614124    -0.79800
C144        C  0.52725143  0.01199583  0.94074834     1.10000
C145        C  0.52108267  0.99214860  0.06522141     1.09800
C146        C  0.54646389  0.05211605  0.99505968     1.10000
C147        C  0.54365282  0.95081718  0.01200972     1.09900
O148        O  0.49406242  0.94587439  0.98991218    -0.79700
O149        O  0.49573289  0.05881831  0.01292187    -0.79800
O150        O  0.46616608  0.01093107  0.97725975    -0.79700
O151        O  0.46382910  0.99489974  0.02399945    -0.79700
O152        O  0.48291985  0.02280683  0.04689450    -0.79800
O153        O  0.48576421  0.98333350  0.95463653    -0.79700
O154        O  0.47690352  0.94585450  0.02807016    -0.79700
O155        O  0.48134170  0.05950406  0.97386925    -0.79800
Co156      Co  0.51590286  0.97472403  0.97522494     1.51500
Co157      Co  0.51502918  0.02949997  0.02938902     1.51700
Co158      Co  0.49708663  0.02922727  0.98199333     1.51600
Co159      Co  0.49435170  0.97555528  0.02132042     1.51500
O160        O  0.51125082  0.00210300  0.00224936    -1.41700
C161        C  0.48070097  0.93524165  0.00718799     1.09900
C162        C  0.48400855  0.06993187  0.99498459     1.10000
C163        C  0.46686640  0.99681575  0.95848170     1.09900
C164        C  0.46367505  0.01056560  0.04157656     1.09900
C165        C  0.26939216  0.74941803  0.76020547     0.80600
N166        N  0.26807578  0.76370227  0.73930815    -0.77700
C167        C  0.25044968  0.75942719  0.72189309     0.83100
N168        N  0.23390904  0.74080233  0.72567421    -0.77600
C169        C  0.23509128  0.72645608  0.74661313     0.83200
N170        N  0.25298839  0.73067255  0.76361183    -0.79300
C171        C  0.43860275  0.72652980  0.91871833     0.80600
N172        N  0.44242468  0.74927857  0.92895862    -0.77700
C173        C  0.42685879  0.76834344  0.92363201     0.83100
N174        N  0.40750827  0.76445452  0.90818784    -0.77600
C175        C  0.40342323  0.74174026  0.89820936     0.83200
N176        N  0.41903396  0.72296625  0.90349047    -0.79300
C177        C  0.22671269  0.92749211  0.56447055     0.80600
N178        N  0.22917098  0.91176161  0.58413223    -0.77700
C179        C  0.25004817  0.89853474  0.58730215     0.83100
N180        N  0.26904401  0.90147052  0.57088800    -0.77600
C181        C  0.26699182  0.91763655  0.55133713     0.83200
N182        N  0.24572620  0.93046627  0.54817865    -0.79300
C183        C  0.06236383  0.56837132  0.76986705     0.80600
N184        N  0.06185623  0.55713116  0.74703235    -0.77700
C185        C  0.07696427  0.56529546  0.72825334     0.83100
N186        N  0.09258324  0.58442274  0.73257742    -0.77600
C187        C  0.09330870  0.59565994  0.75515894     0.83200
N188        N  0.07802773  0.58773170  0.77364834    -0.79300
C189        C  0.76949154  0.25637712  0.23024406     0.80600
N190        N  0.78320664  0.25675048  0.25124368    -0.77700
C191        C  0.77946523  0.23989141  0.26974904     0.83100
N192        N  0.76141039  0.22251043  0.26736446    -0.77600
C193        C  0.74739307  0.22206703  0.24630816     0.83200
N194        N  0.75162598  0.23894088  0.22781772    -0.79300
C195        C  0.93288345  0.25531294  0.43110065     0.80600
N196        N  0.94895384  0.23710013  0.43760242    -0.77700
C197        C  0.94615570  0.21372911  0.42849695     0.83100
N198        N  0.92701613  0.20865023  0.41305936    -0.77600
C199        C  0.91074233  0.22660963  0.40671986     0.83200
N200        N  0.91391962  0.24994005  0.41563504    -0.79300
C201        C  0.76864245  0.42266143  0.07070617     0.80600
N202        N  0.76898239  0.40114484  0.08414378    -0.77700
C203        C  0.74804002  0.39239308  0.09504412     0.83100
N204        N  0.72681813  0.40517340  0.09240000    -0.77600
C205        C  0.72618020  0.42676627  0.07940270     0.83200
N206        N  0.74718861  0.43556993  0.06854976    -0.79300
C207        C  0.56154347  0.07825707  0.27192932     0.80600
N208        N  0.56104224  0.06623582  0.24969267    -0.77700
C209        C  0.57803757  0.07136599  0.23167806     0.83100
N210        N  0.59575017  0.08854336  0.23613108    -0.77600
C211        C  0.59658919  0.10062037  0.25836366     0.83200
N212        N  0.57936999  0.09547101  0.27618103    -0.79300
O213        O  0.95176474  0.50244668  0.98142505    -0.79700
O214        O  0.05395849  0.51568864  0.01060223    -0.79800
O215        O  0.00631704  0.52652692  0.04181293    -0.79800
O216        O  0.01315759  0.53098459  0.96918283    -0.79700
O217        O  0.03231472  0.49781430  0.05215002    -0.79800
O218        O  0.98880355  0.50604896  0.94798210    -0.79700
O219        O  0.06224545  0.51827327  0.96998740    -0.79700
O220        O  0.96670987  0.52921981  0.00869712    -0.79800
C221        C  0.95078847  0.52325869  0.99254218     1.10000
C222        C  0.06797034  0.52315201  0.99237026     1.09800
C223        C  0.02129154  0.51769516  0.05741552     1.10000
C224        C  0.00033668  0.52658916  0.94998268     1.09900
O225        O  0.00510972  0.45645873  0.96093983    -0.79700
O226        O  0.01747721  0.45264435  0.03021983    -0.79800
O227        O  0.95260827  0.48048484  0.02318357    -0.79700
O228        O  0.05644783  0.47199854  0.98734231    -0.79700
O229        O  0.06526826  0.47001831  0.02749142    -0.79800
O230        O  0.96658623  0.45322877  0.99614008    -0.79700
O231        O  0.02995294  0.48568447  0.94787016    -0.79700
O232        O  0.99217294  0.47532638  0.05327557    -0.79800
Co233      Co  0.97976752  0.47955614  0.97344213     1.51500
Co234      Co  0.03420043  0.48281832  0.01805821     1.51700
Co235      Co  0.98116103  0.50281957  0.02981760     1.51600
Co236      Co  0.03281957  0.50256837  0.98100673     1.51500
O237        O  0.00292432  0.49172231  0.00070314    -1.41700
C238        C  0.01896731  0.46533730  0.94405590     1.09900
C239        C  0.00472501  0.45553280  0.04992084     1.10000
C240        C  0.95065016  0.45980260  0.01215866     1.09900
C241        C  0.07146348  0.46603074  0.00510313     1.09900
C242        C  0.22230115  0.07691379  0.42979778     0.80600
N243        N  0.24022346  0.07030034  0.44612043    -0.77700
C244        C  0.26239670  0.08208667  0.44571296     0.83100
N245        N  0.26652818  0.10068886  0.42886079    -0.77600
C246        C  0.24865294  0.10731915  0.41247719     0.83200
N247        N  0.22674857  0.09527201  0.41298251    -0.79300
C248        C  0.26374595  0.25870052  0.29650106     0.80600
N249        N  0.24589707  0.27619176  0.29430095    -0.77700
C250        C  0.24641133  0.29264198  0.27493703     0.83100
N251        N  0.26493753  0.29155638  0.25785073    -0.77600
C252        C  0.28279740  0.27409735  0.25986117     0.83200
N253        N  0.28220506  0.25784595  0.27928344    -0.79300
C254        C  0.07415837  0.44135092  0.27027777     0.80600
N255        N  0.06051813  0.44328808  0.24923053    -0.77700
C256        C  0.06375973  0.42729448  0.22999618     0.83100
N257        N  0.08074219  0.40890422  0.23201668    -0.77600
C258        C  0.09464783  0.40682022  0.25298598     0.83200
N259        N  0.09127485  0.42309788  0.27206670    -0.79300
C260        C  0.43422219  0.27511715  0.08623974     0.80600
N261        N  0.41577000  0.27767653  0.10333149    -0.77700
C262        C  0.40174510  0.25775879  0.10997581     0.83100
N263        N  0.40630235  0.23535813  0.09954528    -0.77600
C264        C  0.42472984  0.23257791  0.08263619     0.83200
N265        N  0.43859655  0.25253827  0.07594326    -0.79300
C266        C  0.77620054  0.26798587  0.72848330     0.80600
N267        N  0.75859250  0.26601120  0.74654027    -0.77700
C268        C  0.74069916  0.24843877  0.74477406     0.83100
N269        N  0.74047329  0.23296460  0.72484594    -0.77600
C270        C  0.75800913  0.23482768  0.70677853     0.83200
N271        N  0.77592639  0.25222226  0.70881413    -0.79300
C272        C  0.92717303  0.44342781  0.73644689     0.80600
N273        N  0.90731693  0.42855622  0.73266749    -0.77700
C274        C  0.89881640  0.41350299  0.75112018     0.83100
N275        N  0.91000973  0.41359768  0.77368494    -0.77600
C276        C  0.92962467  0.42855844  0.77791307     0.83200
N277        N  0.93834297  0.44338319  0.75915958    -0.79300
C278        C  0.60027540  0.22430606  0.92369808     0.80600
N279        N  0.61669046  0.22968876  0.90530072    -0.77700
C280        C  0.62032830  0.25335399  0.89747830     0.83100
N281        N  0.60701999  0.27183586  0.90797394    -0.77600
C282        C  0.59027223  0.26685261  0.92632915     0.83200
N283        N  0.58705677  0.24298630  0.93437616    -0.79300
C284        C  0.76237563  0.07210121  0.54870852     0.80600
N285        N  0.75791497  0.08902960  0.56674051    -0.77700
C286        C  0.73475516  0.09668252  0.57190283     0.83100
N287        N  0.71582715  0.08766856  0.55829966    -0.77600
C288        C  0.71989625  0.07087668  0.53979502     0.83200
N289        N  0.74329751  0.06288753  0.53513763    -0.79300
C290        C  0.77313394  0.75722958  0.28310921     0.80600
N291        N  0.75409639  0.75673286  0.26681342    -0.77700
C292        C  0.75402126  0.74058578  0.24741982     0.83100
N293        N  0.77295824  0.72431663  0.24464439    -0.77600
C294        C  0.79199043  0.72456752  0.26107917     0.83200
N295        N  0.79210504  0.74124755  0.27999554    -0.79300
C296        C  0.71623457  0.92613611  0.44068234     0.80600
N297        N  0.73804337  0.93768258  0.44484328    -0.77700
C298        C  0.75878125  0.93030346  0.43276889     0.83100
N299        N  0.75765275  0.91107711  0.41651761    -0.77600
C300        C  0.73595883  0.89933495  0.41218795     0.83200
N301        N  0.71528531  0.90695395  0.42428419    -0.79300
C302        C  0.95026449  0.56549825  0.23094810     0.80600
N303        N  0.93127526  0.58117450  0.23517907    -0.77700
C304        C  0.91929006  0.58135297  0.25744527     0.83100
N305        N  0.92646958  0.56553135  0.27578640    -0.77600
C306        C  0.94569551  0.54977372  0.27205241     0.83200
N307        N  0.95756450  0.54976798  0.24948971    -0.79300
C308        C  0.59948757  0.77488715  0.07550103     0.80600
N309        N  0.58864611  0.75241906  0.07139274    -0.77700
C310        C  0.59731512  0.73161670  0.08284581     0.83100
N311        N  0.61659559  0.73352443  0.09867017    -0.77600
C312        C  0.62755144  0.75571874  0.10301455     0.83200
N313        N  0.61908099  0.77637591  0.09122001    -0.79300
C314        C  0.24768918  0.73150264  0.26452285     0.80600
N315        N  0.25419618  0.71371619  0.24787603    -0.77700
C316        C  0.27369900  0.71721907  0.23220013     0.83100
N317        N  0.28673678  0.73867937  0.23335075    -0.77600
C318        C  0.28032699  0.75662248  0.24989415     0.83200
N319        N  0.26071886  0.75301676  0.26529201    -0.79300
C320        C  0.42444213  0.94091623  0.25259165     0.80600
N321        N  0.41303597  0.91880033  0.25687857    -0.77700
C322        C  0.39935004  0.90798628  0.23886484     0.83100
N323        N  0.39744208  0.91912554  0.21623026    -0.77600
C324        C  0.40914227  0.94084487  0.21132307     0.83200
N325        N  0.42250750  0.95197323  0.22967384    -0.79300
C326        C  0.07028334  0.76016714  0.42001706     0.80600
N327        N  0.06512482  0.73667274  0.42747647    -0.77700
C328        C  0.07924700  0.71741946  0.41990216     0.83100
N329        N  0.09867602  0.72168545  0.40438560    -0.77600
C330        C  0.10397832  0.74517871  0.39655446     0.83200
N331        N  0.08974150  0.76437668  0.40446009    -0.79300
C332        C  0.28364462  0.54845027  0.07510240     0.80600
N333        N  0.28325613  0.56780789  0.09136805    -0.77700
C334        C  0.26196081  0.58038513  0.09558477     0.83100
N335        N  0.24120595  0.57358368  0.08340630    -0.77600
C336        C  0.24144415  0.55425793  0.06727010     0.83200
N337        N  0.26263139  0.54163325  0.06337648    -0.79300
O338        O  0.99318014  0.95216520  0.53839371    -0.79700
O339        O  0.00233643  0.02091963  0.53275413    -0.79800
O340        O  0.04169531  0.97921898  0.52803417    -0.79800
O341        O  0.94225094  0.00688948  0.49982502    -0.79700
O342        O  0.05194353  0.01849907  0.52199910    -0.79800
O343        O  0.95274683  0.98317709  0.53183708    -0.79700
O344        O  0.97998125  0.03924898  0.50369395    -0.79700
O345        O  0.02092212  0.93529848  0.51486667    -0.79800
C346        C  0.00787998  0.93463395  0.53454202     1.10000
C347        C  0.98993104  0.03933249  0.52535145     1.09800
C348        C  0.05617638  0.99777613  0.53228098     1.10000
C349        C  0.93807219  0.99842981  0.52163266     1.09900
O350        O  0.94498298  0.96197097  0.48433209    -0.79700
O351        O  0.04705796  0.99496661  0.47811507    -0.79800
O352        O  0.01190453  0.95195722  0.46482666    -0.79700
O353        O  0.00061356  0.01909914  0.45687005    -0.79700
O354        O  0.02177356  0.03710215  0.48577730    -0.79800
O355        O  0.98449021  0.93164639  0.48785049    -0.79700
O356        O  0.96144922  0.98573627  0.45504178    -0.79700
O357        O  0.05776911  0.95635316  0.48635719    -0.79800
Co358      Co  0.97053773  0.95882943  0.51052123     1.51500
Co359      Co  0.02304908  0.00598953  0.50674095     1.51700
Co360      Co  0.02541723  0.96706874  0.49495475     1.51600
Co361      Co  0.97270447  0.01113101  0.47927730     1.51500
O362        O  0.99350388  0.98567453  0.49745041    -1.41700
C363        C  0.94462367  0.97111378  0.46245503     1.09900
C364        C  0.06293057  0.97719944  0.47667603     1.10000
C365        C  0.99849118  0.93311573  0.46852084     1.09900
C366        C  0.01302955  0.03746278  0.46391840     1.09900
C367        C  0.01453212  0.86668572  0.44905898     0.19100
C368        C  0.00990935  0.84280516  0.45848923    -0.19000
C369        C  0.02296316  0.82228742  0.44960397    -0.11300
C370        C  0.04122227  0.82514533  0.43096857     0.21300
C371        C  0.04549233  0.84898887  0.42121280    -0.20600
C372        C  0.03244572  0.86950037  0.43011614    -0.11500
C373        C  0.05680767  0.80425414  0.42167064    -0.15600
C374        C  0.05433721  0.78047049  0.42906895    -0.29500
C375        C  0.00238546  0.88823588  0.46142204    -0.03700
C376        C  0.00272604  0.91151930  0.45223786    -0.40300
H377        H  0.99644975  0.84005350  0.47324971     0.12500
H378        H  0.01882843  0.80451186  0.45794984     0.12100
H379        H  0.05944964  0.85190248  0.40696569     0.11600
H380        H  0.03728791  0.88751585  0.42268497     0.11800
H381        H  0.07115256  0.80875501  0.40815835     0.14600
H382        H  0.04005684  0.77512511  0.44219177     0.13300
H383        H  0.99478415  0.88514754  0.48001592     0.11000
H384        H  0.01028262  0.91528767  0.43383123     0.13000
C385        C  0.27073216  0.66019737  0.18870962     0.19100
C386        C  0.25112106  0.64482128  0.18179368    -0.19000
C387        C  0.25366853  0.62797434  0.16225294    -0.11300
C388        C  0.27602911  0.62601243  0.14907497     0.21300
C389        C  0.29595169  0.64082177  0.15643230    -0.20600
C390        C  0.29335710  0.65785758  0.17598137    -0.11500
C391        C  0.27920998  0.60781094  0.12849591    -0.15600
C392        C  0.26028731  0.60040439  0.11423611    -0.29500
C393        C  0.26659762  0.67806561  0.20940867    -0.03700
C394        C  0.28020802  0.69859347  0.21305763    -0.40300
H395        H  0.23362334  0.64592344  0.19149572     0.12500
H396        H  0.23818069  0.61617940  0.15789832     0.12100
H397        H  0.31351840  0.63929774  0.14693429     0.11600
H398        H  0.30917126  0.66879904  0.18121066     0.11800
H399        H  0.29745613  0.60036760  0.12507431     0.14600
H400        H  0.24236078  0.60887083  0.11668932     0.13300
H401        H  0.25055893  0.67494534  0.22122173     0.11000
H402        H  0.29569640  0.70276873  0.20089529     0.13000
C403        C  0.15884325  0.73560388  0.35086840     0.19100
C404        C  0.16859244  0.71475869  0.33872992    -0.19000
C405        C  0.18790833  0.71713607  0.32150716    -0.11300
C406        C  0.19798363  0.74059247  0.31592507     0.21300
C407        C  0.18843468  0.76140930  0.32825632    -0.20600
C408        C  0.16913274  0.75903223  0.34550616    -0.11500
C409        C  0.21899730  0.74417556  0.29826028    -0.15600
C410        C  0.22645679  0.72721474  0.28143161    -0.29500
C411        C  0.13846356  0.73178930  0.36928196    -0.03700
C412        C  0.12455726  0.75009110  0.37896635    -0.40300
H413        H  0.16128138  0.69643770  0.34266668     0.12500
H414        H  0.19507136  0.70045859  0.31311417     0.16300
H415        H  0.19602518  0.77967046  0.32459830     0.11600
H416        H  0.16277924  0.77558707  0.35475034     0.11800
H417        H  0.22854126  0.76188231  0.29894779     0.14600
H418        H  0.21679110  0.70973503  0.27960122     0.13300
H419        H  0.13431647  0.71275995  0.37462264     0.11000
H420        H  0.12758351  0.76921530  0.37348167     0.13000
C421        C  0.35381984  0.85355961  0.23530519     0.19100
C422        C  0.32811707  0.85267849  0.23370387    -0.19000
C423        C  0.31560420  0.83012193  0.23604386    -0.11300
C424        C  0.32867929  0.80792169  0.23947753     0.21300
C425        C  0.35442681  0.80877110  0.24074325    -0.20600
C426        C  0.36691294  0.83143111  0.23898912    -0.11500
C427        C  0.31596348  0.78358855  0.24017592    -0.15600
C428        C  0.29355005  0.78052477  0.25045983    -0.29500
C429        C  0.36659890  0.87749685  0.23122680    -0.03700
C430        C  0.38684796  0.88415098  0.24384020    -0.40300
H431        H  0.31772189  0.86948681  0.23051396     0.12500
H432        H  0.29578574  0.82999467  0.23430616     0.12100
H433        H  0.36487814  0.79185371  0.24302138     0.11600
H434        H  0.38680444  0.83154521  0.23966499     0.11800
H435        H  0.32558241  0.76766987  0.23254048     0.14600
H436        H  0.28468584  0.79591805  0.25988876     0.13300
H437        H  0.35846714  0.89048113  0.21809493     0.11000
H438        H  0.39386589  0.87230581  0.25860802     0.13000
C439        C  0.87587900  0.96026369  0.44963388     0.19100
C440        C  0.85568025  0.96274090  0.46586074    -0.19000
C441        C  0.83211756  0.95603465  0.45838929    -0.11300
C442        C  0.82804264  0.94677325  0.43425904     0.21300
C443        C  0.84814629  0.94497469  0.41769358    -0.20600
C444        C  0.87189944  0.95173366  0.42523751    -0.11500
C445        C  0.80363975  0.93681328  0.42671164    -0.15600
C446        C  0.78239030  0.94263034  0.43836714    -0.29500
C447        C  0.90062886  0.96444439  0.46025761    -0.03700
C448        C  0.92204937  0.96729325  0.44763841    -0.40300
H449        H  0.85824439  0.96912399  0.48484786     0.12500
H450        H  0.81750064  0.95709512  0.47208679     0.12100
H451        H  0.84555713  0.93770071  0.39906102     0.11600
H452        H  0.88708750  0.94928226  0.41236943     0.11800
H453        H  0.80329075  0.92373652  0.41132482     0.14600
H454        H  0.78206604  0.95665499  0.45281525     0.13300
H455        H  0.90107526  0.96555368  0.48054517     0.11000
H456        H  0.92265924  0.96843564  0.42741195     0.13000
C457        C  0.67339720  0.73993940  0.15552290     0.19100
C458        C  0.66970037  0.73220808  0.18031858    -0.19000
C459        C  0.68946064  0.73055619  0.19683014    -0.11300
C460        C  0.71349593  0.73605183  0.18870279     0.21300
C461        C  0.71731575  0.74318166  0.16370457    -0.20600
C462        C  0.69740188  0.74545305  0.14731407    -0.11500
C463        C  0.73474539  0.73406423  0.20596066    -0.15600
C464        C  0.73303930  0.74097918  0.23002244    -0.29500
C465        C  0.65218829  0.73997521  0.13820080    -0.03700
C466        C  0.64874281  0.75720650  0.12025210    -0.40300
H467        H  0.65142765  0.72744115  0.18693013     0.12500
H468        H  0.68598546  0.72443509  0.21581600     0.12100
H469        H  0.73570095  0.74723046  0.15693864     0.11600
H470        H  0.70084228  0.75080973  0.12809116     0.11800
H471        H  0.75243326  0.72840283  0.19839494     0.14600
H472        H  0.71597493  0.74894130  0.23687681     0.13300
H473        H  0.63833223  0.72567066  0.14103506     0.11000
H474        H  0.66128274  0.77282900  0.11857952     0.13000
C475        C  0.87233297  0.63418343  0.24823041     0.19100
C476        C  0.87476979  0.65867352  0.23959284    -0.19000
C477        C  0.85487138  0.67499022  0.24054515    -0.11300
C478        C  0.83191142  0.66695387  0.24963354     0.21300
C479        C  0.82923367  0.64229699  0.25772141    -0.20600
C480        C  0.84934504  0.62608999  0.25732760    -0.11500
C481        C  0.81058844  0.68404721  0.25048543    -0.15600
C482        C  0.81298724  0.70749712  0.25849821    -0.29500
C483        C  0.89365353  0.61722457  0.24577531    -0.03700
C484        C  0.89812657  0.59814129  0.26142179    -0.40300
H485        H  0.89217684  0.66521944  0.23213356     0.12500
H486        H  0.85730446  0.69377761  0.23373125     0.12100
H487        H  0.81162882  0.63567134  0.26458919     0.11600
H488        H  0.84670852  0.60712335  0.26348452     0.11800
H489        H  0.79244625  0.67679633  0.24621694     0.14600
H490        H  0.83069932  0.71383082  0.26528303     0.13300
H491        H  0.90665600  0.62118650  0.23078284     0.11000
H492        H  0.88633273  0.59496823  0.27755629     0.13000
C493        C  0.75417189  0.84824192  0.36500531     0.19100
C494        C  0.77593000  0.83508063  0.36031016    -0.19000
C495        C  0.77667636  0.81633092  0.34235087    -0.11300
C496        C  0.75553845  0.81031347  0.32852737     0.21300
C497        C  0.73378649  0.82351889  0.33325171    -0.20600
C498        C  0.73305193  0.84226007  0.35121488    -0.11500
C499        C  0.75545048  0.79138250  0.30829020    -0.15600
C500        C  0.77373239  0.77508863  0.30400633    -0.29500
C501        C  0.75471837  0.86885939  0.38338998    -0.03700
C502        C  0.73455727  0.87846290  0.39441382    -0.40300
H503        H  0.79254640  0.83948326  0.37044878     0.12500
H504        H  0.79402890  0.80718639  0.33912656     0.12100
H505        H  0.71729514  0.81954090  0.32274088     0.11600
H506        H  0.71608957  0.85238030  0.35364264     0.11800
H507        H  0.73940242  0.79086757  0.29631408     0.14600
H508        H  0.78968193  0.77448136  0.31598969     0.13300
H509        H  0.77267057  0.87614124  0.38836985     0.11000
H510        H  0.71652485  0.87072384  0.39079036     0.13000
C511        C  0.87406342  0.02808225  0.52953016     0.19100
C512        C  0.86475197  0.05158423  0.52351759    -0.19000
C513        C  0.83967282  0.05661566  0.52559878    -0.11300
C514        C  0.82310026  0.03816655  0.53369106     0.21300
C515        C  0.83229814  0.01450736  0.53950145    -0.20600
C516        C  0.85759486  0.00950574  0.53761734    -0.11500
C517        C  0.79628266  0.04344833  0.53612768    -0.15600
C518        C  0.78830102  0.06581277  0.54356566    -0.29500
C519        C  0.90033440  0.02310363  0.52370007    -0.03700
C520        C  0.91417381  0.00475879  0.53352007    -0.40300
H521        H  0.87692845  0.06606092  0.51668658     0.12500
H522        H  0.83323527  0.07484288  0.52025410     0.12100
H523        H  0.81989382  0.99990955  0.54555710     0.11600
H524        H  0.86404436  0.99095609  0.54161323     0.11800
H525        H  0.78316319  0.02845361  0.53365154     0.14600
H526        H  0.80170582  0.07986551  0.54858417     0.13300
H527        H  0.90854803  0.03502389  0.50948260     0.11000
H528        H  0.90722935  0.99333146  0.54874457     0.13000
C529        C  0.74632047  0.14396243  0.62456360     0.19100
C530        C  0.76722493  0.15779182  0.63085242    -0.19000
C531        C  0.76618938  0.17571532  0.64950141    -0.11300
C532        C  0.74406663  0.18031755  0.66239067     0.21300
C533        C  0.72320615  0.16614885  0.65646016    -0.20600
C534        C  0.72423986  0.14817166  0.63767592    -0.11500
C535        C  0.74249760  0.19879192  0.68288247    -0.15600
C536        C  0.75858785  0.21762514  0.68544087    -0.29500
C537        C  0.74894809  0.12480987  0.60492883    -0.03700
C538        C  0.73022162  0.11499572  0.59188714    -0.40300
H539        H  0.78456405  0.15464409  0.62132971     0.12500
H540        H  0.78298160  0.18538170  0.65406986     0.12100
H541        H  0.70606151  0.16897174  0.66643278     0.11600
H542        H  0.70791681  0.13737474  0.63390340     0.11800
H543        H  0.72752122  0.19680957  0.69626962     0.14600
H544        H  0.77297609  0.22063504  0.67165927     0.13300
H545        H  0.76761631  0.11923475  0.60033481     0.11000
H546        H  0.71143498  0.12080474  0.59532639     0.13000
C547        C  0.66943138  0.24587656  0.84562539     0.19100
C548        C  0.67423783  0.22690923  0.82846352    -0.19000
C549        C  0.69137554  0.23033372  0.80923259    -0.11300
C550        C  0.70419631  0.25292048  0.80674018     0.21300
C551        C  0.70004802  0.27158558  0.82445356    -0.20600
C552        C  0.68276985  0.26819205  0.84366384    -0.11500
C553        C  0.72248083  0.25729177  0.78640859    -0.15600
C554        C  0.72198570  0.24503833  0.76456851    -0.29500
C555        C  0.65109571  0.24116540  0.86575794    -0.03700
C556        C  0.63866119  0.25913382  0.87777289    -0.40300
H557        H  0.66459931  0.20935450  0.82987731     0.12500
H558        H  0.69475883  0.21504351  0.79669404     0.12100
H559        H  0.71007622  0.28893003  0.82330595     0.11600
H560        H  0.68023818  0.28289545  0.85709951     0.11800
H561        H  0.73647890  0.27136732  0.78936232     0.14600
H562        H  0.70754430  0.23166154  0.76092828     0.13300
H563        H  0.64698328  0.22190273  0.87014288     0.11000
H564        H  0.64151316  0.27845670  0.87283178     0.13000
C565        C  0.85471471  0.35791251  0.75349246     0.19100
C566        C  0.85926938  0.33236386  0.75265169    -0.19000
C567        C  0.83998252  0.31561711  0.74906705    -0.11300
C568        C  0.81568043  0.32414619  0.74690222     0.21300
C569        C  0.81107486  0.34968890  0.74817097    -0.20600
C570        C  0.83047299  0.36649985  0.75109062    -0.11500
C571        C  0.79484313  0.30659433  0.74449355    -0.15600
C572        C  0.79648276  0.28602347  0.73055050    -0.29500
C573        C  0.87533936  0.37511889  0.75830031    -0.03700
C574        C  0.87774186  0.39697843  0.74641087    -0.40300
H575        H  0.87779976  0.32538008  0.75473874     0.12500
H576        H  0.84399818  0.29596754  0.74871824     0.12100
H577        H  0.79245876  0.35661498  0.74681403     0.11600
H578        H  0.82645936  0.38612078  0.75219948     0.11800
H579        H  0.77754498  0.31116941  0.75359417     0.14600
H580        H  0.81304549  0.28258180  0.71968747     0.13300
H581        H  0.88969754  0.36897268  0.77091413     0.11000
H582        H  0.86476343  0.40217528  0.73197245     0.13000
C583        C  0.35968077  0.27869426  0.16384534     0.19100
C584        C  0.36481452  0.28473074  0.18873009    -0.19000
C585        C  0.34595741  0.28529489  0.20661708    -0.11300
C586        C  0.32151308  0.28045900  0.19973683     0.21300
C587        C  0.31627661  0.27517154  0.17469595    -0.20600
C588        C  0.33521169  0.27397446  0.15694285    -0.11500
C589        C  0.30110859  0.28178549  0.21816308    -0.15600
C590        C  0.30320686  0.27296898  0.24158521    -0.29500
C591        C  0.38003821  0.27771926  0.14532707    -0.03700
C592        C  0.38109826  0.26001925  0.12779738    -0.40300
H593        H  0.38350139  0.28866005  0.19439016     0.12500
H594        H  0.35041489  0.28998350  0.22570802     0.12100
H595        H  0.29753278  0.27168675  0.16894127     0.11600
H596        H  0.33067309  0.26977576  0.13775307     0.11800
H597        H  0.28353495  0.28895567  0.21188857     0.14600
H598        H  0.32001702  0.26372237  0.24721133     0.13300
H599        H  0.39527363  0.29062422  0.14728118     0.11000
H600        H  0.36699875  0.24572285  0.12739231     0.13000
C601        C  0.18618854  0.33000286  0.27923048     0.19100
C602        C  0.16165457  0.32357833  0.27440425    -0.19000
C603        C  0.14378440  0.34200081  0.27129744    -0.11300
C604        C  0.15006107  0.36719309  0.27366112     0.21300
C605        C  0.17444775  0.37353658  0.27924937    -0.20600
C606        C  0.19242255  0.35517497  0.28168170    -0.11500
C607        C  0.13140539  0.38716076  0.27155544    -0.15600
C608        C  0.11280883  0.38650637  0.25507544    -0.29500
C609        C  0.20489101  0.31022001  0.28232467    -0.03700
C610        C  0.22765825  0.31230146  0.27257901    -0.40300
H611        H  0.15638825  0.30428059  0.27274635     0.12500
H612        H  0.12499775  0.33651880  0.26761568     0.12100
H613        H  0.17964083  0.39279441  0.28151016     0.11600
H614        H  0.21109496  0.36062546  0.28596344     0.11800
H615        H  0.13389392  0.40355790  0.28300156     0.14600
H616        H  0.11136368  0.37111932  0.24214343     0.13300
H617        H  0.19937534  0.29304745  0.29146659     0.11000
H618        H  0.23239170  0.32853298  0.26145202     0.13000
C619        C  0.11928669  0.01285486  0.45095292     0.19100
C620        C  0.12241165  0.03692116  0.44133950    -0.19000
C621        C  0.14581783  0.04729622  0.43848637    -0.11300
C622        C  0.16692751  0.03375053  0.44502150     0.21300
C623        C  0.16390539  0.00943137  0.45408949    -0.20600
C624        C  0.14038749  0.99901893  0.45699524    -0.11500
C625        C  0.19205147  0.04496994  0.44416282    -0.15600
C626        C  0.19785615  0.06480194  0.42989181    -0.29500
C627        C  0.09375878  0.00450336  0.45696004    -0.03700
C628        C  0.08727224  0.98162516  0.46490802    -0.40300
H629        H  0.10656247  0.04816911  0.43682428     0.12500
H630        H  0.14704775  0.06631564  0.43215665     0.12100
H631        H  0.17979211  0.99861844  0.45944463     0.11600
H632        H  0.13895418  0.98058940  0.46486980     0.11800
H633        H  0.20624180  0.03650801  0.45555141     0.14600
H634        H  0.18433902  0.07255202  0.41729075     0.13300
H635        H  0.07966254  0.01874210  0.45645941     0.11000
H636        H  0.10050484  0.96665306  0.46526805     0.13000
C637        C  0.27436198  0.20085851  0.33763816     0.19100
C638        C  0.27448618  0.17561370  0.33148247    -0.19000
C639        C  0.27275496  0.15748018  0.35015385    -0.11300
C640        C  0.27153129  0.16426186  0.37544572     0.21300
C641        C  0.27252074  0.18947810  0.38171341    -0.20600
C642        C  0.27358096  0.20768535  0.36295825    -0.11500
C643        C  0.26890877  0.14518231  0.39535714    -0.15600
C644        C  0.25288814  0.12634599  0.39301504    -0.29500
C645        C  0.27575314  0.21955012  0.31725751    -0.03700
C646        C  0.26306104  0.24094551  0.31766575    -0.40300
H647        H  0.27543257  0.16992487  0.31211740     0.12500
H648        H  0.27252065  0.13813399  0.34485018     0.12100
H649        H  0.27185798  0.19508722  0.40110828     0.11600
H650        H  0.27408571  0.22702574  0.36823978     0.11800
H651        H  0.27883726  0.14759759  0.41273366     0.14600
H652        H  0.24132572  0.12552202  0.37654768     0.13300
H653        H  0.28616114  0.21468603  0.30059923     0.11000
H654        H  0.25099827  0.24499709  0.33336061     0.13000
C655        C  0.97251084  0.43956402  0.83445660     0.19100
C656        C  0.98866957  0.45854205  0.84163366    -0.19000
C657        C  0.99837444  0.45911078  0.86579772    -0.11300
C658        C  0.99224163  0.44050447  0.88332811     0.21300
C659        C  0.97666324  0.42118544  0.87594270    -0.20600
C660        C  0.96713771  0.42049404  0.85175787    -0.11500
C661        C  0.99908945  0.44238806  0.91011732    -0.15600
C662        C  0.01834624  0.45570373  0.91831027    -0.29500
C663        C  0.96159337  0.44031533  0.80894831    -0.03700
C664        C  0.94085670  0.42807876  0.80297783    -0.40300
H665        H  0.99323282  0.47341671  0.82873087     0.12500
H666        H  0.00974445  0.47472478  0.87092951     0.12100
H667        H  0.97156012  0.40669980  0.88908403     0.11600
H668        H  0.95557462  0.40496588  0.84687811     0.11800
H669        H  0.98631589  0.43446062  0.92367138     0.14600
H670        H  0.03144399  0.46346434  0.90503658     0.13300
H671        H  0.97045925  0.45194728  0.79490460     0.11000
H672        H  0.93119567  0.41721115  0.81702181     0.13000
C673        C  0.98824384  0.54944555  0.17143330     0.19100
C674        C  0.99885322  0.52755972  0.16227328    -0.19000
C675        C  0.00574434  0.52555973  0.13710183    -0.11300
C676        C  0.00233205  0.54554167  0.12045320     0.21300
C677        C  0.99248722  0.56768472  0.12972950    -0.20600
C678        C  0.98584596  0.56978776  0.15495542    -0.11500
C679        C  0.00615237  0.54271246  0.09302409    -0.15600
C680        C  0.02288383  0.52712635  0.08325865    -0.29500
C681        C  0.97918793  0.55001634  0.19789265    -0.03700
C682        C  0.96166615  0.56582080  0.20573665    -0.40300
H683        H  0.00099568  0.51161429  0.17441983     0.12500
H684        H  0.01262934  0.50792684  0.13052147     0.12100
H685        H  0.98963824  0.58332050  0.11732965     0.11600
H686        H  0.97866557  0.58735812  0.16127297     0.11800
H687        H  0.99351436  0.55228843  0.08067626     0.14600
H688        H  0.03595124  0.51808139  0.09552545     0.13300
H689        H  0.98580772  0.53593392  0.21074177     0.11000
H690        H  0.95394546  0.57906405  0.19270828     0.13000
C691        C  0.01351853  0.43414851  0.11772239     0.19100
C692        C  0.00281579  0.44015118  0.14083798    -0.19000
C693        C  0.01438937  0.43391558  0.16325875    -0.11300
C694        C  0.03728011  0.42178488  0.16311710     0.21300
C695        C  0.04744821  0.41472922  0.14005788    -0.20600
C696        C  0.03583839  0.42094493  0.11758262    -0.11500
C697        C  0.05130223  0.41680834  0.18648895    -0.15600
C698        C  0.04871151  0.43059904  0.20726604    -0.29500
C699        C  0.00260553  0.44495847  0.09463970    -0.03700
C700        C  0.00866501  0.43830022  0.07113166    -0.40300
H701        H  0.98568142  0.45033901  0.14156367     0.12500
H702        H  0.00541759  0.43889649  0.18058700     0.12100
H703        H  0.06497308  0.40524711  0.13937886     0.11600
H704        H  0.04507383  0.41639492  0.10028470     0.11800
H705        H  0.06531566  0.40249519  0.18600684     0.14600
H706        H  0.03576295  0.44585481  0.20750498     0.13300
H707        H  0.99077834  0.46097127  0.09727266     0.11000
H708        H  0.02005849  0.42215820  0.06783181     0.13000
C709        C  0.17558900  0.55226941  0.04151244     0.19100
C710        C  0.16099224  0.56847418  0.02735553    -0.19000
C711        C  0.13776517  0.56102715  0.01897494    -0.11300
C712        C  0.12861053  0.53741455  0.02522357     0.21300
C713        C  0.14324440  0.52125144  0.03931739    -0.20600
C714        C  0.16656041  0.52848057  0.04723428    -0.11500
C715        C  0.10334983  0.52942210  0.01904140    -0.15600
C716        C  0.09132179  0.53579630  0.99807836    -0.29500
C717        C  0.19927984  0.56106844  0.05181194    -0.03700
C718        C  0.21866274  0.54597765  0.05501430    -0.40300
H719        H  0.16750446  0.58700100  0.02298273     0.12500
H720        H  0.12668014  0.57400149  0.00849510     0.12100
H721        H  0.13646267  0.50300873  0.04448264     0.11600
H722        H  0.17707519  0.51578887  0.05863948     0.11800
H723        H  0.09504127  0.51576426  0.03152267     0.14600
H724        H  0.10005798  0.54743092  0.98398776     0.13300
H725        H  0.20086354  0.58055178  0.05667603     0.11000
H726        H  0.21794477  0.52703239  0.04824342     0.13000
C727        C  0.88275734  0.44592805  0.02936733     0.19100
C728        C  0.86231144  0.46176953  0.03004042    -0.19000
C729        C  0.83942937  0.45341603  0.03858850    -0.11300
C730        C  0.83627854  0.42878090  0.04678676     0.21300
C731        C  0.85661535  0.41267371  0.04539884    -0.20600
C732        C  0.87962576  0.42109294  0.03675270    -0.11500
C733        C  0.81269554  0.41948992  0.05803173    -0.15600
C734        C  0.79133076  0.43228596  0.05851600    -0.29500
C735        C  0.90712224  0.45714322  0.02335658    -0.03700
C736        C  0.92788143  0.44509426  0.01654333    -0.40300
H737        H  0.86419612  0.48104397  0.02454106     0.12500
H738        H  0.82467965  0.46673960  0.03939109     0.12100
H739        H  0.85484886  0.39360681  0.05160310     0.11600
H740        H  0.89502731  0.40844013  0.03683740     0.11800
H741        H  0.81305691  0.40114968  0.06651763     0.14600
H742        H  0.78993195  0.45025997  0.04956407     0.13300
H743        H  0.90784966  0.47726411  0.02445927     0.11000
H744        H  0.92785208  0.42527217  0.01321375     0.13000
C745        C  0.97889756  0.14997780  0.43330156     0.19100
C746        C  0.98006492  0.12908025  0.41778774    -0.19000
C747        C  0.99237720  0.10759606  0.42536930    -0.11300
C748        C  0.00380974  0.10640335  0.44889662     0.21300
C749        C  0.00358811  0.12772810  0.46388865    -0.20600
C750        C  0.99119630  0.14919451  0.45634550    -0.11500
C751        C  0.01367434  0.08292632  0.45987081    -0.15600
C752        C  0.01234483  0.06049401  0.44890488    -0.29500
C753        C  0.96314124  0.17121838  0.42548453    -0.03700
C754        C  0.96362230  0.19396692  0.43587237    -0.40300
H755        H  0.97082886  0.12912696  0.39991721     0.12500
H756        H  0.99206408  0.09192357  0.41291020     0.12100
H757        H  0.01228165  0.12747727  0.48202277     0.11600
H758        H  0.99053604  0.16461561  0.46914685     0.11800
H759        H  0.01941791  0.08368012  0.47927890     0.14600
H760        H  0.00620886  0.05866596  0.42980528     0.13300
H761        H  0.95027561  0.16776889  0.41043568     0.11000
H762        H  0.97702350  0.19844992  0.45005966     0.13000
C763        C  0.65600335  0.14047434  0.25193175     0.19100
C764        C  0.67257015  0.14491673  0.23217023    -0.19000
C765        C  0.69267369  0.16081840  0.23511656    -0.11300
C766        C  0.69675282  0.17278121  0.25801355     0.21300
C767        C  0.68056396  0.16799259  0.27797759    -0.20600
C768        C  0.66034514  0.15212947  0.27501476    -0.11500
C769        C  0.71786806  0.19001066  0.26168331    -0.15600
C770        C  0.72739075  0.20378370  0.24294346    -0.29500
C771        C  0.63512519  0.12300830  0.24757665    -0.03700
C772        C  0.61627385  0.11892147  0.26358286    -0.40300
H773        H  0.66999725  0.13596970  0.21429411     0.12500
H774        H  0.70517976  0.16336315  0.21952199     0.12100
H775        H  0.68344640  0.17675179  0.29589314     0.11600
H776        H  0.64851070  0.14897188  0.29098112     0.11800
H777        H  0.72474067  0.19252320  0.28052059     0.14600
H778        H  0.71933032  0.20277739  0.22447756     0.13300
H779        H  0.63537524  0.11290694  0.23005615     0.11000
H780        H  0.61510600  0.12880820  0.28111051     0.13000
C781        C  0.76677109  0.33603144  0.13522890     0.19100
C782        C  0.78596263  0.33207573  0.15214429    -0.19000
C783        C  0.78465103  0.31277795  0.16967793    -0.11300
C784        C  0.76401702  0.29690667  0.17058154     0.21300
C785        C  0.74541245  0.30019958  0.15283243    -0.20600
C786        C  0.74672886  0.31948407  0.13534882    -0.11500
C787        C  0.76100132  0.27678874  0.18955316    -0.15600
C788        C  0.77392694  0.27551637  0.21087868    -0.29500
C789        C  0.76796770  0.35772420  0.11800154    -0.03700
C790        C  0.74761770  0.36940688  0.11009796    -0.40300
H791        H  0.80180130  0.34429625  0.15215025     0.12500
H792        H  0.79989586  0.31047269  0.18230177     0.12100
H793        H  0.72955227  0.28800967  0.15271830     0.11600
H794        H  0.73202371  0.32133098  0.12196066     0.11800
H795        H  0.74667166  0.26310835  0.18635487     0.14600
H796        H  0.78774710  0.28936868  0.21503169     0.13300
H797        H  0.78591424  0.36542468  0.11336998     0.11000
H798        H  0.72966659  0.36288097  0.11621832     0.13000
C799        C  0.85128848  0.23241567  0.36752615     0.19100
C800        C  0.83804909  0.25303219  0.35897649    -0.19000
C801        C  0.81974616  0.25038260  0.34101554    -0.11300
C802        C  0.81418809  0.22694139  0.33109096     0.21300
C803        C  0.82624817  0.20605705  0.34075044    -0.20600
C804        C  0.84471940  0.20871392  0.35873235    -0.11500
C805        C  0.79661304  0.22417785  0.31006431    -0.15600
C806        C  0.79508934  0.24161903  0.29211310    -0.29500
C807        C  0.87174663  0.23679471  0.38538003    -0.03700
C808        C  0.88998584  0.22057525  0.38999281    -0.40300
H809        H  0.84228029  0.27143296  0.36578986     0.12500
H810        H  0.81012383  0.26678607  0.33474824     0.12100
H811        H  0.82194463  0.18774166  0.33376819     0.11600
H812        H  0.85376842  0.19220973  0.36549578     0.11800
H813        H  0.78632845  0.20698780  0.30828921     0.14600
H814        H  0.80697031  0.25779956  0.29303163     0.13300
H815        H  0.87243616  0.25486987  0.39424938     0.11000
H816        H  0.89015558  0.20255124  0.38112230     0.13000
C817        C  0.00894964  0.54571547  0.88093921     0.19100
C818        C  0.00445486  0.53358666  0.85817427    -0.19000
C819        C  0.01580736  0.54147146  0.83590490    -0.11300
C820        C  0.03200644  0.56186715  0.83582673     0.21300
C821        C  0.03571365  0.57455780  0.85839209    -0.20600
C822        C  0.02444242  0.56664960  0.88062413    -0.11500
C823        C  0.04605208  0.57042161  0.81323571    -0.15600
C824        C  0.04631390  0.55928188  0.79062498    -0.29500
C825        C  0.99911259  0.53433997  0.90454070    -0.03700
C826        C  0.00300434  0.54305749  0.92787181    -0.40300
H827        H  0.99255796  0.51746846  0.85769742     0.12500
H828        H  0.01203809  0.53122978  0.81905825     0.12100
H829        H  0.04794208  0.59041862  0.85899699     0.11600
H830        H  0.02863832  0.57670934  0.89746283     0.11800
H831        H  0.05757052  0.58668999  0.81574377     0.14600
H832        H  0.03517119  0.54300666  0.78717473     0.13300
H833        H  0.99039958  0.51627947  0.90266144     0.11000
H834        H  0.01191781  0.56077662  0.93075757     0.13000
C835        C  0.15895726  0.94756614  0.57079321     0.19100
C836        C  0.13842043  0.93480114  0.58030547    -0.19000
C837        C  0.11467845  0.94328318  0.57560526    -0.11300
C838        C  0.11093811  0.96505630  0.56179090     0.21300
C839        C  0.13151463  0.97833563  0.55281314    -0.20600
C840        C  0.15533013  0.96967968  0.55729919    -0.11500
C841        C  0.08553240  0.97145530  0.55436344    -0.15600
C842        C  0.07849778  0.99431383  0.54732572    -0.29500
C843        C  0.18366120  0.93695296  0.57534192    -0.03700
C844        C  0.20333705  0.94082242  0.56041133    -0.40300
H845        H  0.14072461  0.91775617  0.59081135     0.12500
H846        H  0.09914800  0.93254533  0.58239307     0.12100
H847        H  0.12932391  0.99482965  0.54147427     0.11600
H848        H  0.17074580  0.98025872  0.55009340     0.11800
H849        H  0.07261543  0.95613941  0.55277464     0.14600
H850        H  0.09079697  0.01001528  0.54947916     0.13300
H851        H  0.18516780  0.92389968  0.59077081     0.11000
H852        H  0.20202853  0.95286401  0.54419447     0.13000
C853        C  0.14703558  0.64181817  0.74727765     0.19100
C854        C  0.17206563  0.63880376  0.74166088    -0.19000
C855        C  0.18788477  0.65924234  0.74087012    -0.11300
C856        C  0.17882396  0.68323813  0.74508193     0.21300
C857        C  0.15379857  0.68632699  0.75074847    -0.20600
C858        C  0.13805396  0.66575200  0.75218840    -0.11500
C859        C  0.19501502  0.70520663  0.74201298    -0.15600
C860        C  0.21818346  0.70537434  0.75053421    -0.29500
C861        C  0.13042014  0.62009367  0.74523852    -0.03700
C862        C  0.11010891  0.61682562  0.75934993    -0.40300
H863        H  0.17932398  0.62058815  0.73749408     0.12500
H864        H  0.20701040  0.65638989  0.73598273     0.12100
H865        H  0.14641350  0.70469806  0.75385011     0.11600
H866        H  0.11872387  0.66870576  0.75601301     0.11800
H867        H  0.18757151  0.72170608  0.73315058     0.14600
H868        H  0.22479178  0.68977396  0.76149322     0.13300
H869        H  0.13540599  0.60597100  0.73170979     0.11000
H870        H  0.10592307  0.62963498  0.77437171     0.13000
C871        C  0.26218680  0.84303760  0.63084906     0.19100
C872        C  0.25860757  0.81741337  0.62801455    -0.19000
C873        C  0.25822831  0.80164611  0.64893362    -0.11300
C874        C  0.26196307  0.81127014  0.67301949     0.21300
C875        C  0.26612184  0.83678901  0.67568629    -0.20600
C876        C  0.26599780  0.85255355  0.65491359    -0.11500
C877        C  0.26286008  0.79528210  0.69567244    -0.15600
C878        C  0.24946730  0.77443763  0.69865577    -0.29500
C879        C  0.26222796  0.85961712  0.60860048    -0.03700
C880        C  0.25190067  0.88219993  0.60933553    -0.40300
H881        H  0.25584472  0.80964226  0.60961224     0.12500
H882        H  0.25558159  0.78196245  0.64617851     0.12100
H883        H  0.26935661  0.84459994  0.69399135     0.11600
H884        H  0.26934247  0.87213949  0.65764489     0.11800
H885        H  0.27406416  0.80175908  0.71108116     0.14600
H886        H  0.23696827  0.76857628  0.68407141     0.13300
H887        H  0.26925999  0.85255952  0.59097190     0.11000
H888        H  0.24243702  0.88811450  0.62621146     0.13000
C889        C  0.34748255  0.75097343  0.85508885     0.19100
C890        C  0.33924607  0.77114729  0.84080539    -0.19000
C891        C  0.32118880  0.76794112  0.82260831    -0.11300
C892        C  0.31084319  0.74439876  0.81843620     0.21300
C893        C  0.31840456  0.72441505  0.83338357    -0.20600
C894        C  0.33655043  0.72759180  0.85148549    -0.11500
C895        C  0.29160398  0.74006848  0.79933543    -0.15600
C896        C  0.28863539  0.75443634  0.77892553    -0.29500
C897        C  0.36733070  0.75512381  0.87358694    -0.03700
C898        C  0.38265436  0.73710761  0.88120801    -0.40300
H899        H  0.34703612  0.78943020  0.84352720     0.12500
H900        H  0.31520415  0.78400449  0.81215479     0.12100
H901        H  0.31037014  0.70620022  0.83090735     0.11600
H902        H  0.34169242  0.71175899  0.86274416     0.11800
H903        H  0.28000069  0.72380011  0.80177422     0.14600
H904        H  0.30083164  0.77002324  0.77543273     0.13300
H905        H  0.37035569  0.77397819  0.87995407     0.11000
H906        H  0.38074074  0.71843971  0.87401986     0.13000
C907        C  0.58800655  0.84326249  0.05501796     0.19100
C908        C  0.60254877  0.86355463  0.04718765    -0.19000
C909        C  0.59168167  0.88613598  0.03995794    -0.11300
C910        C  0.56599908  0.88896938  0.04092736     0.21300
C911        C  0.55158256  0.86868597  0.04878107    -0.20600
C912        C  0.56234071  0.84616299  0.05561369    -0.11500
C913        C  0.55310223  0.91271594  0.03523303    -0.15600
C914        C  0.56114304  0.93104604  0.01981801    -0.29500
C915        C  0.59993237  0.82002383  0.06431419    -0.03700
C916        C  0.58888445  0.79753211  0.06386230    -0.40300
H917        H  0.62239292  0.86197964  0.04685602     0.12500
H918        H  0.60338191  0.90146146  0.03437546     0.12100
H919        H  0.53175527  0.87033233  0.04988737     0.11600
H920        H  0.55047164  0.83138031  0.06221954     0.11800
H921        H  0.53451331  0.91408294  0.04268261     0.14600
H922        H  0.57884449  0.92961825  0.01048918     0.13300
H923        H  0.61835372  0.82156562  0.07189404     0.11000
H924        H  0.57120913  0.79549426  0.05479349     0.13000
C925        C  0.46299961  0.87458406  0.97360531     0.19100
C926        C  0.45499648  0.86962440  0.94927851    -0.19000
C927        C  0.44957122  0.84543936  0.94188240    -0.11300
C928        C  0.45220613  0.82548012  0.95865375     0.21300
C929        C  0.46038153  0.83036728  0.98299408    -0.20600
C930        C  0.46554485  0.85471703  0.99051672    -0.11500
C931        C  0.44769318  0.79943363  0.95069939    -0.15600
C932        C  0.43104162  0.79369104  0.93313167    -0.29500
C933        C  0.47075078  0.90029348  0.97963351    -0.03700
C934        C  0.47079175  0.91005504  0.00275015    -0.40300
H935        H  0.45329215  0.88452879  0.93577376     0.12500
H936        H  0.44411720  0.84238830  0.92273537     0.12100
H937        H  0.46289885  0.81529543  0.99615568     0.11600
H938        H  0.47235134  0.85779860  0.00920262     0.11800
H939        H  0.45792057  0.78471110  0.95980656     0.14600
H940        H  0.41957992  0.80820181  0.92533929     0.13300
H941        H  0.47650365  0.91189275  0.96399316     0.11000
H942        H  0.46366369  0.89951550  0.01853027     0.13000
C943        C  0.55817348  0.03010382  0.17620287     0.19100
C944        C  0.53563349  0.01926935  0.16960376    -0.19000
C945        C  0.53184124  0.01015695  0.14548289    -0.11300
C946        C  0.55072739  0.01142703  0.12743439     0.21300
C947        C  0.57359777  0.02128521  0.13436972    -0.20600
C948        C  0.57739434  0.03035607  0.15848337    -0.11500
C949        C  0.54655697  0.00551276  0.10065175    -0.15600
C950        C  0.52762246  0.99187970  0.09201724    -0.29500
C951        C  0.56059142  0.04136372  0.20145112    -0.03700
C952        C  0.57731697  0.05893360  0.20709801    -0.40300
H953        H  0.52055035  0.01868265  0.18290147     0.12500
H954        H  0.51377598  0.00322997  0.14085869     0.12100
H955        H  0.58848171  0.02247163  0.12087455     0.11600
H956        H  0.59533098  0.03769406  0.16297279     0.11800
H957        H  0.55900635  0.01417891  0.08724569     0.14600
H958        H  0.51538147  0.98220549  0.10483003     0.13300
H959        H  0.54705461  0.03604242  0.21550036     0.11000
H960        H  0.59044189  0.06526302  0.19313976     0.13000
C961        C  0.42884739  0.98667977  0.09727850     0.19100
C962        C  0.41669357  0.96493784  0.10485169    -0.19000
C963        C  0.41369854  0.95919162  0.13021044    -0.11300
C964        C  0.42288090  0.97512092  0.14882133     0.21300
C965        C  0.43465231  0.99711707  0.14123557    -0.20600
C966        C  0.43758530  0.00289486  0.11583123    -0.11500
C967        C  0.42245778  0.96836918  0.17598326    -0.15600
C968        C  0.40732704  0.95097766  0.18564420    -0.29500
C969        C  0.43591520  0.98952008  0.07044480    -0.03700
C970        C  0.44366670  0.01102401  0.06022918    -0.40300
H971        H  0.41035984  0.95179934  0.09105135     0.12500
H972        H  0.40527621  0.94160572  0.13489365     0.12100
H973        H  0.44228344  0.00954071  0.15501882     0.11600
H974        H  0.44795336  0.01936420  0.11093952     0.11800
H975        H  0.43560324  0.97737292  0.18817550     0.14600
H976        H  0.39366068  0.94233835  0.17387041     0.13300
H977        H  0.43872121  0.97248212  0.06003939     0.11000
H978        H  0.44121422  0.02815999  0.07046786     0.13000
C979        C  0.45140262  0.17786073  0.04505555     0.19100
C980        C  0.45766250  0.17353568  0.01995098    -0.19000
C981        C  0.46438733  0.14973978  0.01197884    -0.11300
C982        C  0.46530052  0.12995113  0.02916181     0.21300
C983        C  0.45925605  0.13442014  0.05424468    -0.20600
C984        C  0.45234289  0.15801459  0.06211731    -0.11500
C985        C  0.47417592  0.10482730  0.02248354    -0.15600
C986        C  0.47419834  0.09512817  0.99932487    -0.29500
C987        C  0.44524270  0.20336163  0.05342100    -0.03700
C988        C  0.42985089  0.20761358  0.07270853    -0.40300
H989        H  0.45743431  0.18861021  0.00653847     0.12500
H990        H  0.46955588  0.14712690  0.99262397     0.12100
H991        H  0.46018012  0.11961040  0.06793390     0.11600
H992        H  0.44849042  0.16077630  0.08176582     0.11800
H993        H  0.48061166  0.09341468  0.03788782     0.14600
H994        H  0.46672214  0.10540300  0.98366242     0.13300
H995        H  0.45327924  0.21890720  0.04330189     0.11000
H996        H  0.42038928  0.19219520  0.08165333     0.13000
C997        C  0.58083951  0.16243169  0.95534548     0.19100
C998        C  0.57934611  0.15321731  0.97990517    -0.19000
C999        C  0.57485292  0.12792290  0.98448260    -0.11300
C1000       C  0.57141439  0.11141044  0.96448489     0.21300
C1001       C  0.57297440  0.12068552  0.94000373    -0.20600
C1002       C  0.57769277  0.14578036  0.93544521    -0.11500
C1003       C  0.56203395  0.08568837  0.96817697    -0.15600
C1004       C  0.56451333  0.07203250  0.98922391    -0.29500
C1005       C  0.58455607  0.18951159  0.95069765    -0.03700
C1006       C  0.59659717  0.19787610  0.93030327    -0.40300
H1007       H  0.58137661  0.16567421  0.99557661     0.12500
H1008       H  0.57290741  0.12163469  0.00360923     0.12100
H1009       H  0.56974726  0.10856043  0.92427112     0.11600
H1010       H  0.57787810  0.15222839  0.91628109     0.11800
H1011       H  0.55034157  0.07862199  0.95340716     0.14600
H1012       H  0.57683964  0.07805755  0.00387306     0.13300
H1013       H  0.57786133  0.20263680  0.96447380     0.11000
H1014       H  0.60494582  0.18456168  0.91769853     0.13000
C1015       C  0.99899121  0.10851806  0.53862095     0.19100
C1016       C  0.98951553  0.13104881  0.52979556    -0.19000
C1017       C  0.00110228  0.15354383  0.53532808    -0.11300
C1018       C  0.02253312  0.15419742  0.54985933     0.21300
C1019       C  0.03183626  0.13162232  0.55914986    -0.20600
C1020       C  0.02020775  0.10907841  0.55359435    -0.11500
C1021       C  0.03515156  0.17860847  0.55337389    -0.15600
C1022       C  0.05377613  0.18286652  0.56939561    -0.29500
C1023       C  0.98850623  0.08488712  0.52890955    -0.03700
C1024       C  0.99181951  0.06258311  0.53981638    -0.40300
H1025       H  0.97349573  0.13119555  0.51786374     0.12500
H1026       H  0.99355690  0.17050751  0.52769729     0.12100
H1027       H  0.04858393  0.13100224  0.56987595     0.11600
H1028       H  0.02867003  0.09210769  0.56002086     0.11800
H1029       H  0.02876124  0.19391718  0.54188084     0.14600
H1030       H  0.06026650  0.16825368  0.58161477     0.13300
H1031       H  0.97974110  0.08571850  0.51072960     0.11000
H1032       H  0.00015087  0.06144332  0.55815170     0.13000
C1033       C  0.44269877  0.00300699  0.89109502     0.19100
C1034       C  0.43303438  0.02717875  0.88944123    -0.19000
C1035       C  0.42696303  0.03759041  0.86611131    -0.11300
C1036       C  0.43042920  0.02407469  0.84383620     0.21300
C1037       C  0.43938951  0.99974002  0.84575287    -0.20600
C1038       C  0.44536784  0.98938230  0.86896577    -0.11500
C1039       C  0.42651075  0.03476468  0.81819777    -0.15600
C1040       C  0.41431984  0.05599234  0.81322693    -0.29500
C1041       C  0.45370986  0.99274931  0.91453080    -0.03700
C1042       C  0.44892962  0.00085901  0.93793625    -0.40300
H1043       H  0.43132559  0.03859992  0.90590908     0.12500
H1044       H  0.42058036  0.05653869  0.86568011     0.12100
H1045       H  0.44240199  0.98881872  0.82909169     0.11600
H1046       H  0.45305510  0.97088111  0.86951146     0.11800
H1047       H  0.43404403  0.02444722  0.80255669     0.14600
H1048       H  0.40584361  0.06626726  0.82832212     0.13300
H1049       H  0.46829756  0.97924754  0.91196854     0.11000
H1050       H  0.43418014  0.01399419  0.94110808     0.13000
C1051       C  0.18360009  0.44885158  0.95777000     0.19100
C1052       C  0.17655537  0.45319426  0.98266225    -0.19000
C1053       C  0.15163712  0.45547412  0.98930455    -0.11300
C1054       C  0.13313779  0.45366969  0.97105656     0.21300
C1055       C  0.14025816  0.44975888  0.94614732    -0.20600
C1056       C  0.16507545  0.44732470  0.93955566    -0.11500
C1057       C  0.10656768  0.45811705  0.97667882    -0.15600
C1058       C  0.09625047  0.45599442  0.99955935    -0.29500
C1059       C  0.21029120  0.44692511  0.95107978    -0.03700
C1060       C  0.21825504  0.43372227  0.93132552    -0.40300
H1061       H  0.19039484  0.45489557  0.99702382     0.12500
H1062       H  0.14707932  0.45941878  0.00856237     0.12100
H1063       H  0.12652466  0.44888039  0.93159777     0.11600
H1064       H  0.16965346  0.44494962  0.92003153     0.11800
H1065       H  0.09519432  0.46445253  0.96129753     0.14600
H1066       H  0.10707698  0.44943106  0.01519048     0.13300
H1067       H  0.22363730  0.45595720  0.96302897     0.11000
H1068       H  0.20502309  0.42333667  0.92043453     0.13000
C1069       C  0.18580918  0.23429609  0.67305681     0.19100
C1070       C  0.18894090  0.23099923  0.64724456    -0.19000
C1071       C  0.16853064  0.22824212  0.63163211    -0.11300
C1072       C  0.14458186  0.22798871  0.64168366     0.21300
C1073       C  0.14147163  0.23074359  0.66756140    -0.20600
C1074       C  0.16184061  0.23421858  0.68308092    -0.11500
C1075       C  0.12274212  0.22394777  0.62560568    -0.15600
C1076       C  0.12040617  0.23506974  0.60321960    -0.29500
C1077       C  0.20774959  0.23654280  0.68936053    -0.03700
C1078       C  0.20846023  0.25211390  0.70891032    -0.40300
H1079       H  0.20723385  0.23070779  0.63913354     0.12500
H1080       H  0.17148952  0.22568457  0.61179968     0.12100
H1081       H  0.12321314  0.23037563  0.67575239     0.11600
H1082       H  0.15888693  0.23617692  0.70298411     0.11800
H1083       H  0.10763567  0.21284879  0.63298037     0.14600
H1084       H  0.13440403  0.24814391  0.59698791     0.13300
H1085       H  0.22401857  0.22587679  0.68454954     0.11000
H1086       H  0.19297860  0.26434787  0.71237848     0.13000
C1087       C  0.31894341  0.19366984  0.76181875     0.19100
C1088       C  0.34386063  0.19386413  0.75486026    -0.19000
C1089       C  0.35842298  0.17267931  0.75813080    -0.11300
C1090       C  0.34846058  0.15107727  0.76908534     0.21300
C1091       C  0.32371948  0.15118666  0.77671335    -0.20600
C1092       C  0.30900750  0.17212275  0.77282268    -0.11500
C1093       C  0.36360256  0.12851559  0.77354935    -0.15600
C1094       C  0.38131108  0.12102195  0.75761732    -0.29500
C1095       C  0.30369397  0.21624232  0.75812920    -0.03700
C1096       C  0.28077543  0.21492900  0.74891220    -0.40300
H1097       H  0.35197668  0.21034464  0.74659794     0.12500
H1098       H  0.37758048  0.17340110  0.75258272     0.12100
H1099       H  0.31568254  0.13491042  0.78546228     0.11600
H1100       H  0.28996804  0.17163892  0.77883311     0.11800
H1101       H  0.35900631  0.11694435  0.78958038     0.14600
H1102       H  0.38450796  0.13136323  0.74044835     0.13300
H1103       H  0.31188073  0.23424288  0.76180260     0.11000
H1104       H  0.27358896  0.19703728  0.74317116     0.13000
C1105       C  0.26338007  0.36349704  0.84381253     0.19100
C1106       C  0.24262741  0.35597288  0.83030901    -0.19000
C1107       C  0.24403907  0.33672246  0.81298186    -0.11300
C1108       C  0.26640718  0.32438003  0.80851834     0.21300
C1109       C  0.28724022  0.33186246  0.82199276    -0.20600
C1110       C  0.28583540  0.35127243  0.83937206    -0.11500
C1111       C  0.26804173  0.30274337  0.79119309    -0.15600
C1112       C  0.25218229  0.29931031  0.77225027    -0.29500
C1113       C  0.25998662  0.38284837  0.86339794    -0.03700
C1114       C  0.27817786  0.39519496  0.87514759    -0.40300
H1115       H  0.22499687  0.36474888  0.83352008     0.12500
H1116       H  0.22728396  0.33108265  0.80383038     0.12100
H1117       H  0.30462530  0.32248946  0.81923276     0.11600
H1118       H  0.30216872  0.35605381  0.84970465     0.11800
H1119       H  0.28248284  0.28922054  0.79430417     0.14600
H1120       H  0.23850651  0.31336641  0.76829705     0.13300
H1121       H  0.24108761  0.38715297  0.86841835     0.11000
H1122       H  0.29724318  0.39221773  0.86998947     0.13000
C1123       C  0.88978492  0.54652541  0.96530340     0.19100
C1124       C  0.88138983  0.55098896  0.94101284    -0.19000
C1125       C  0.85696454  0.55756952  0.93675414    -0.11300
C1126       C  0.84016623  0.55947830  0.95674045     0.21300
C1127       C  0.84857690  0.55519840  0.98114290    -0.20600
C1128       C  0.87326536  0.54903654  0.98545462    -0.11500
C1129       C  0.81359803  0.56410644  0.95205758    -0.15600
C1130       C  0.80617417  0.57854671  0.93301775    -0.29500
C1131       C  0.91454885  0.53556510  0.96845490    -0.03700
C1132       C  0.92903565  0.53917369  0.98842505    -0.40300
H1133       H  0.89363811  0.54865622  0.92517380     0.12500
H1134       H  0.85102647  0.55998572  0.91764035     0.12100
H1135       H  0.83594360  0.55623256  0.99681041     0.11600
H1136       H  0.87906820  0.54496938  0.00434229     0.11800
H1137       H  0.80006013  0.55533668  0.96422266     0.14600
H1138       H  0.81985060  0.58863966  0.92212357     0.13300
H1139       H  0.92081092  0.52321966  0.95374870     0.11000
H1140       H  0.92400370  0.55263881  0.00256138     0.13000
C1141       C  0.00028916  0.86646796  0.55464815     0.19100
C1142       C  0.99826961  0.84463509  0.54053104    -0.19000
C1143       C  0.98586547  0.82375847  0.55003854    -0.11300
C1144       C  0.97527178  0.82417819  0.57411168     0.21300
C1145       C  0.97837545  0.84554743  0.58864957    -0.20600
C1146       C  0.99087596  0.86631084  0.57922764    -0.11500
C1147       C  0.95974308  0.80360465  0.58443860    -0.15600
C1148       C  0.95865293  0.78044631  0.57507616    -0.29500
C1149       C  0.01028838  0.88936406  0.54226277    -0.03700
C1150       C  0.00618737  0.91248473  0.55083984    -0.40300
H1151       H  0.00541908  0.84405710  0.52161394     0.12500
H1152       H  0.98385356  0.80785342  0.53802409     0.12100
H1153       H  0.97070198  0.84636947  0.60734569     0.11600
H1154       H  0.99263182  0.88221168  0.59127004     0.11800
H1155       H  0.94872633  0.80781683  0.60086533     0.14600
H1156       H  0.97016424  0.77524994  0.55937934     0.13300
H1157       H  0.01821957  0.88735186  0.52369456     0.11000
H1158       H  0.99688917  0.91521465  0.56854610     0.13000
C1159       C  0.75724589  0.65742146  0.85453166     0.19100
C1160       C  0.75757498  0.68295837  0.85931759    -0.19000
C1161       C  0.75596183  0.70006473  0.83967662    -0.11300
C1162       C  0.75467895  0.69182121  0.81484095     0.21300
C1163       C  0.75470974  0.66625733  0.81008427    -0.20600
C1164       C  0.75564959  0.64916948  0.82976121    -0.11500
C1165       C  0.75472710  0.70937213  0.79347037    -0.15600
C1166       C  0.74347046  0.73154005  0.79409699    -0.29500
C1167       C  0.76057185  0.63969632  0.87536201    -0.03700
C1168       C  0.74769748  0.61847357  0.87727311    -0.40300
H1169       H  0.75916630  0.68965127  0.87829089     0.12500
H1170       H  0.75656080  0.71966466  0.84387005     0.12100
H1171       H  0.75404681  0.65950879  0.79107033     0.11600
H1172       H  0.75597281  0.62954902  0.82558244     0.11800
H1173       H  0.76322124  0.70321461  0.77615130     0.14600
H1174       H  0.73304970  0.73700156  0.81053406     0.13300
H1175       H  0.77356763  0.64458852  0.88989469     0.11000
H1176       H  0.73310028  0.61450711  0.86409888     0.13000
C1177       C  0.85551456  0.74363482  0.65880773     0.19100
C1178       C  0.83107298  0.73637736  0.65483708    -0.19000
C1179       C  0.81337579  0.73916960  0.67362694    -0.11300
C1180       C  0.81995002  0.74873322  0.69702749     0.21300
C1181       C  0.84450302  0.75552100  0.70122757    -0.20600
C1182       C  0.86212207  0.75331250  0.68217203    -0.11500
C1183       C  0.80158963  0.75086250  0.71747419    -0.15600
C1184       C  0.77848204  0.75849463  0.71324115    -0.29500
C1185       C  0.87394784  0.73910646  0.63886831    -0.03700
C1186       C  0.89321577  0.75417226  0.63413553    -0.40300
H1187       H  0.82566663  0.72850459  0.63710910     0.12500
H1188       H  0.79469544  0.73324413  0.67007147     0.12100
H1189       H  0.85000390  0.76265562  0.71923781     0.11600
H1190       H  0.88098119  0.75844624  0.68594991     0.11800
H1191       H  0.80751793  0.74728790  0.73650214     0.14600
H1192       H  0.77322634  0.76435680  0.69458298     0.13300
H1193       H  0.87088438  0.72316259  0.62692021     0.11000
H1194       H  0.89542975  0.77125806  0.64455058     0.13000
C1195       C  0.53177649  0.00219483  0.87034320     0.19100
C1196       C  0.51401464  0.99383873  0.85336586    -0.19000
C1197       C  0.52086852  0.98035567  0.83213054    -0.11300
C1198       C  0.54578522  0.97511170  0.82743163     0.21300
C1199       C  0.56358752  0.98464713  0.84361151    -0.20600
C1200       C  0.55677282  0.99834834  0.86458074    -0.11500
C1201       C  0.55399815  0.95840717  0.80707727    -0.15600
C1202       C  0.54168218  0.95478671  0.78566762    -0.29500
C1203       C  0.52347813  0.01238908  0.89484607    -0.03700
C1204       C  0.53766256  0.01155771  0.91535243    -0.40300
H1205       H  0.49468718  0.99674130  0.85716095     0.12500
H1206       H  0.50660202  0.97310734  0.82019842     0.12100
H1207       H  0.58292896  0.98113248  0.84022252     0.11600
H1208       H  0.57122859  0.00533354  0.87638792     0.11800
H1209       H  0.57158877  0.94923360  0.80961550     0.14600
H1210       H  0.52492307  0.96499510  0.78191926     0.13300
H1211       H  0.50408920  0.01681825  0.89705608     0.11000
H1212       H  0.55650753  0.00522270  0.91405623     0.13000
C1213       C  0.62739666  0.85444344  0.74882035     0.19100
C1214       C  0.63921387  0.84294695  0.72861408    -0.19000
C1215       C  0.65811965  0.82593148  0.73252956    -0.11300
C1216       C  0.66580914  0.82000717  0.75687955     0.21300
C1217       C  0.65356961  0.83092448  0.77717177    -0.20600
C1218       C  0.63460410  0.84801153  0.77325425    -0.11500
C1219       C  0.68600323  0.80204030  0.76162177    -0.15600
C1220       C  0.70415236  0.79794755  0.74495572    -0.29500
C1221       C  0.60735760  0.87240773  0.74331748    -0.03700
C1222       C  0.59796604  0.88845728  0.76000040    -0.40300
H1223       H  0.63379833  0.84715536  0.70962856     0.12500
H1224       H  0.66632842  0.81718101  0.71637820     0.12100
H1225       H  0.65881383  0.82634111  0.79611667     0.11600
H1226       H  0.62555731  0.85574636  0.78945431     0.11800
H1227       H  0.68629145  0.79249391  0.77952386     0.14600
H1228       H  0.70478790  0.80845909  0.72764982     0.13300
H1229       H  0.60044277  0.87282760  0.72431271     0.11000
H1230       H  0.60491546  0.88908608  0.77891613     0.13000
C1231       C  0.45881279  0.34170974  0.07570137     0.19100
C1232       C  0.46239869  0.36312817  0.09015121    -0.19000
C1233       C  0.47242596  0.38474782  0.07943705    -0.11300
C1234       C  0.47877037  0.38529149  0.05394390     0.21300
C1235       C  0.47547305  0.36377435  0.03970122    -0.20600
C1236       C  0.46559565  0.34231929  0.05033325    -0.11500
C1237       C  0.48666544  0.40808117  0.04046671    -0.15600
C1238       C  0.49528158  0.42922963  0.05066232    -0.29500
C1239       C  0.44623141  0.31968347  0.08682048    -0.03700
C1240       C  0.44888345  0.29662976  0.07758383    -0.40300
H1241       H  0.45704125  0.36324619  0.10966422     0.12500
H1242       H  0.47430331  0.40111115  0.09087398     0.12100
H1243       H  0.47994242  0.36373334  0.01994547     0.11600
H1244       H  0.46238216  0.32665064  0.03824988     0.11800
H1245       H  0.48551012  0.40709428  0.02021790     0.14600
H1246       H  0.49845843  0.43071947  0.07058201     0.13300
H1247       H  0.43415465  0.32263636  0.10275745     0.11000
H1248       H  0.46201797  0.29322534  0.06267622     0.13000
C1249       C  0.56258392  0.33214482  0.93761325     0.19100
C1250       C  0.55614068  0.35199006  0.92184485    -0.19000
C1251       C  0.54788503  0.37455517  0.93167773    -0.11300
C1252       C  0.54605514  0.37784142  0.95766821     0.21300
C1253       C  0.55177994  0.35770724  0.97338084    -0.20600
C1254       C  0.55992572  0.33514146  0.96354815    -0.11500
C1255       C  0.53997641  0.40211218  0.96946528    -0.15600
C1256       C  0.53126311  0.42244347  0.95758453    -0.29500
C1257       C  0.57436003  0.30981023  0.92644897    -0.03700
C1258       C  0.57600596  0.28739961  0.93770954    -0.40300
H1259       H  0.55813438  0.35025093  0.90178486     0.12500
H1260       H  0.54389910  0.38950799  0.91884555     0.12100
H1261       H  0.55061814  0.35965469  0.99348683     0.11600
H1262       H  0.56515236  0.32057585  0.97638806     0.11800
H1263       H  0.54278424  0.40318472  0.98952436     0.14600
H1264       H  0.52677773  0.42197051  0.93789741     0.13300
H1265       H  0.58236364  0.31212931  0.90793174     0.11000
H1266       H  0.56677733  0.28393489  0.95540461     0.13000
C1267       C  0.67436014  0.47461727  0.06659425     0.19100
C1268       C  0.67010378  0.49310971  0.04858662    -0.19000
C1269       C  0.64654146  0.50316168  0.04541677    -0.11300
C1270       C  0.62667155  0.49503594  0.06043000     0.21300
C1271       C  0.63132228  0.47760140  0.07933725    -0.20600
C1272       C  0.65481465  0.46767829  0.08256187    -0.11500
C1273       C  0.60052094  0.50161211  0.05523158    -0.15600
C1274       C  0.59329422  0.51945760  0.03920541    -0.29500
C1275       C  0.69909850  0.46262619  0.06798726    -0.03700
C1276       C  0.70228071  0.43970479  0.07753494    -0.40300
H1277       H  0.68483383  0.49910464  0.03625618     0.12500
H1278       H  0.64393954  0.51638862  0.03046561     0.12100
H1279       H  0.61651705  0.47108572  0.09130935     0.11600
H1280       H  0.65739408  0.45440116  0.09749733     0.11800
H1281       H  0.58657446  0.48939077  0.06316257     0.14600
H1282       H  0.60661840  0.53211778  0.03103651     0.13300
H1283       H  0.71480613  0.47242283  0.06008484     0.11000
H1284       H  0.68651710  0.42938649  0.08446638     0.13000
C1285       C  0.67518982  0.53649055  0.93244995     0.19100
C1286       C  0.65507860  0.53251079  0.91658111    -0.19000
C1287       C  0.63414032  0.51971348  0.92498720    -0.11300
C1288       C  0.63272874  0.51080381  0.94971582     0.21300
C1289       C  0.65306814  0.51436432  0.96538665    -0.20600
C1290       C  0.67397589  0.52712870  0.95698423    -0.11500
C1291       C  0.61011338  0.49933231  0.96073657    -0.15600
C1292       C  0.58745115  0.50088648  0.95071397    -0.29500
C1293       C  0.69632421  0.55164447  0.92311688    -0.03700
C1294       C  0.71889959  0.55188441  0.93349685    -0.40300
H1295       H  0.65547779  0.53953458  0.89758811     0.12500
H1296       H  0.61918735  0.51713496  0.91206847     0.12100
H1297       H  0.65251718  0.50787863  0.98456105     0.11600
H1298       H  0.68869748  0.53025219  0.97007186     0.11800
H1299       H  0.61169693  0.49224302  0.97970934     0.14600
H1300       H  0.58484354  0.50910248  0.93241894     0.13300
H1301       H  0.69308759  0.56300983  0.90665606     0.11000
H1302       H  0.72305966  0.53983175  0.94916015     0.13000
C1303       C  0.54171876  0.62762871  0.04581396     0.19100
C1304       C  0.56603913  0.63154895  0.05359667    -0.19000
C1305       C  0.57456531  0.65531085  0.05946594    -0.11300
C1306       C  0.55894067  0.67602264  0.05775485     0.21300
C1307       C  0.53464301  0.67220607  0.04977336    -0.20600
C1308       C  0.52604800  0.64832095  0.04396314    -0.11500
C1309       C  0.56782784  0.70179199  0.06299158    -0.15600
C1310       C  0.58694423  0.70657440  0.07818356    -0.29500
C1311       C  0.53446988  0.60204858  0.03794040    -0.03700
C1312       C  0.51127646  0.59419160  0.03354890    -0.40300
H1313       H  0.57872038  0.61613679  0.05476598     0.12500
H1314       H  0.59365727  0.65735961  0.06459383     0.12100
H1315       H  0.52228010  0.68780413  0.04789780     0.11600
H1316       H  0.50739283  0.64636701  0.03740960     0.11800
H1317       H  0.55817290  0.71719079  0.05437043     0.14600
H1318       H  0.59576583  0.69136539  0.08793460     0.13300
H1319       H  0.54943015  0.58909193  0.03475973     0.11000
H1320       H  0.49576700  0.60637620  0.03673236     0.13000
C1321       C  0.46831709  0.66141061  0.91630952     0.19100
C1322       C  0.46113229  0.63961254  0.90402635    -0.19000
C1323       C  0.47159062  0.61681024  0.91021005    -0.11300
C1324       C  0.48989609  0.61532437  0.92840784     0.21300
C1325       C  0.49810016  0.63724659  0.93987466    -0.20600
C1326       C  0.48741256  0.66009601  0.93390050    -0.11500
C1327       C  0.49736757  0.59057679  0.93768804    -0.15600
C1328       C  0.51942873  0.58602342  0.94782549    -0.29500
C1329       C  0.45442487  0.68451362  0.91079375    -0.03700
C1330       C  0.45545109  0.70567251  0.92414072    -0.40300
H1331       H  0.44661332  0.64003639  0.89026987     0.12500
H1332       H  0.46484257  0.60016036  0.90128160     0.12100
H1333       H  0.51182120  0.63664048  0.95442009     0.11600
H1334       H  0.49383815  0.67640093  0.94354211     0.11800
H1335       H  0.48343474  0.57607949  0.93780464     0.14600
H1336       H  0.53393060  0.59987346  0.94670771     0.13300
H1337       H  0.44148214  0.68349136  0.89544525     0.11000
H1338       H  0.46814532  0.70773894  0.93950464     0.13000
C1339       C  0.39687359  0.50851294  0.05375877     0.19100
C1340       C  0.37487585  0.49507860  0.05166877    -0.19000
C1341       C  0.35267931  0.50493314  0.06044145    -0.11300
C1342       C  0.35193297  0.52880343  0.07101444     0.21300
C1343       C  0.37404402  0.54194731  0.07367061    -0.20600
C1344       C  0.39624003  0.53203759  0.06503618    -0.11500
C1345       C  0.32855808  0.54093755  0.07884902    -0.15600
C1346       C  0.30651060  0.53479477  0.06938667    -0.29500
C1347       C  0.41951687  0.49885730  0.04153655    -0.03700
C1348       C  0.44234234  0.50585970  0.04814112    -0.40300
H1349       H  0.37482486  0.47700954  0.04292721     0.12500
H1350       H  0.33622809  0.49379691  0.05873325     0.12100
H1351       H  0.37403561  0.56034871  0.08168822     0.11600
H1352       H  0.41261901  0.54336929  0.06626334     0.11800
H1353       H  0.32978527  0.55662046  0.09145322     0.14600
H1354       H  0.30507064  0.52000840  0.05582322     0.13300
H1355       H  0.41712388  0.48708839  0.02530366     0.11000
H1356       H  0.44500962  0.51713756  0.06464038     0.13000
C1357       C  0.34991907  0.47512918  0.93508678     0.19100
C1358       C  0.36987159  0.48042801  0.91912417    -0.19000
C1359       C  0.39078328  0.49287769  0.92779157    -0.11300
C1360       C  0.39259103  0.50011938  0.95298479     0.21300
C1361       C  0.37232053  0.49539741  0.96882373    -0.20600
C1362       C  0.35127578  0.48307095  0.96006797    -0.11500
C1363       C  0.41557552  0.51104945  0.96394870    -0.15600
C1364       C  0.43769815  0.51156293  0.95228200    -0.29500
C1365       C  0.32892061  0.46019199  0.92505978    -0.03700
C1366       C  0.30632097  0.45842006  0.93560355    -0.40300
H1367       H  0.36939722  0.47467750  0.89977212     0.12500
H1368       H  0.40545298  0.49641017  0.91456969     0.12100
H1369       H  0.37303799  0.50062413  0.98832558     0.11600
H1370       H  0.33656804  0.47911468  0.97317120     0.11800
H1371       H  0.41487624  0.51629912  0.98352976     0.14600
H1372       H  0.43950597  0.50494321  0.93330222     0.13300
H1373       H  0.33221826  0.45049832  0.90761670     0.11000
H1374       H  0.30200094  0.46888178  0.95229886     0.13000
C1375       C  0.05800698  0.49184354  0.38198333     0.19100
C1376       C  0.04730230  0.49918357  0.35931741    -0.19000
C1377       C  0.05533043  0.48929028  0.33656580    -0.11300
C1378       C  0.07437525  0.47161674  0.33593097     0.21300
C1379       C  0.08619670  0.46562281  0.35839184    -0.20600
C1380       C  0.07815271  0.47548572  0.38112833    -0.11500
C1381       C  0.08158162  0.45776174  0.31291117    -0.15600
C1382       C  0.06889726  0.45823861  0.29136526    -0.29500
C1383       C  0.04577180  0.49943426  0.40580757    -0.03700
C1384       C  0.05356822  0.49304257  0.42882524    -0.40300
H1385       H  0.03196336  0.51197359  0.35926025     0.12500
H1386       H  0.04604413  0.49522126  0.31982321     0.12100
H1387       H  0.10111714  0.45235077  0.35853518     0.11600
H1388       H  0.08724884  0.46924410  0.39786011     0.11800
H1389       H  0.09708794  0.44517839  0.31438044     0.14600
H1390       H  0.05322220  0.47035590  0.28917480     0.13300
H1391       H  0.02799892  0.50848788  0.40414139     0.11000
H1392       H  0.07109468  0.48393829  0.43142052     0.13000
C1393       C  0.96296035  0.48998234  0.38085632     0.19100
C1394       C  0.97813775  0.48973546  0.35948072    -0.19000
C1395       C  0.97151714  0.50247884  0.33762533    -0.11300
C1396       C  0.94930415  0.51579062  0.33650901     0.21300
C1397       C  0.93375510  0.51532902  0.35758329    -0.20600
C1398       C  0.94039330  0.50266551  0.37941554    -0.11500
C1399       C  0.94181792  0.53127979  0.31454164    -0.15600
C1400       C  0.95390964  0.53288359  0.29243217    -0.29500
C1401       C  0.97260003  0.47889979  0.40460079    -0.03700
C1402       C  0.96073333  0.47916481  0.42684433    -0.40300
H1403       H  0.99560258  0.48015862  0.35989979     0.12500
H1404       H  0.98422049  0.50223777  0.32204315     0.12100
H1405       H  0.91649941  0.52530833  0.35737919     0.11600
H1406       H  0.92792500  0.50360035  0.39514378     0.11800
H1407       H  0.92530057  0.54232304  0.31695037     0.14600
H1408       H  0.97016672  0.52184304  0.28895168     0.13300
H1409       H  0.99159324  0.47265665  0.40429665     0.11000
H1410       H  0.94203936  0.48587112  0.42825583     0.13000
C1411       C  0.06403343  0.52451411  0.66951866     0.19100
C1412       C  0.04654467  0.50648353  0.66291094    -0.19000
C1413       C  0.04522169  0.49746684  0.63838222    -0.11300
C1414       C  0.06149550  0.50623434  0.61973503     0.21300
C1415       C  0.07927183  0.52382705  0.62641644    -0.20600
C1416       C  0.08078090  0.53264332  0.65093289    -0.11500
C1417       C  0.05874130  0.49969996  0.59277395    -0.15600
C1418       C  0.04731447  0.47909289  0.58460100    -0.29500
C1419       C  0.06398608  0.53441888  0.69573252    -0.03700
C1420       C  0.07678111  0.55466989  0.70272052    -0.40300
H1421       H  0.03341133  0.49975297  0.67664923     0.12500
H1422       H  0.03078372  0.48442350  0.63395733     0.12100
H1423       H  0.09196827  0.53101833  0.61248041     0.11600
H1424       H  0.09513512  0.54585547  0.65488986     0.11800
H1425       H  0.06475157  0.51346019  0.57913345     0.14600
H1426       H  0.04129254  0.46510526  0.59793933     0.13300
H1427       H  0.05256725  0.52506819  0.70957751     0.11000
H1428       H  0.08782439  0.56465508  0.68914987     0.13000
C1429       C  0.95576224  0.49051590  0.62446660     0.19100
C1430       C  0.96914925  0.49272551  0.64674024    -0.19000
C1431       C  0.95993986  0.48317246  0.66929470    -0.11300
C1432       C  0.93690727  0.47123012  0.67011199     0.21300
C1433       C  0.92314779  0.46988729  0.64803277    -0.20600
C1434       C  0.93233166  0.47943717  0.62552789    -0.11500
C1435       C  0.92681474  0.45874879  0.69288118    -0.15600
C1436       C  0.93735165  0.45859658  0.71564993    -0.29500
C1437       C  0.96777203  0.49843139  0.60059499    -0.03700
C1438       C  0.95951805  0.49257406  0.57762224    -0.40300
H1439       H  0.98720225  0.50124974  0.64658644     0.12500
H1440       H  0.97129602  0.48472332  0.68569044     0.12100
H1441       H  0.90528745  0.46094996  0.64805648     0.11600
H1442       H  0.92100268  0.47768886  0.60913891     0.11800
H1443       H  0.90987057  0.44834608  0.69042023     0.14600
H1444       H  0.95401695  0.46899961  0.71918587     0.13300
H1445       H  0.98580814  0.50702401  0.60211126     0.11000
H1446       H  0.94219593  0.48297480  0.57522775     0.13000
C1447       C  0.06707219  0.31410453  0.52674529     0.19100
C1448       C  0.08256712  0.33499536  0.52658464    -0.19000
C1449       C  0.07560687  0.35694270  0.51458102    -0.11300
C1450       C  0.05276071  0.35865232  0.50255707     0.21300
C1451       C  0.03754295  0.33758325  0.50199818    -0.20600
C1452       C  0.04448813  0.31559073  0.51405266    -0.11500
C1453       C  0.04364945  0.38230441  0.49153453    -0.15600
C1454       C  0.05044074  0.40472317  0.50011334    -0.29500
C1455       C  0.07500010  0.29180798  0.54123464    -0.03700
C1456       C  0.06366932  0.26951865  0.54097228    -0.40300
H1457       H  0.10010817  0.33443598  0.53602294     0.12500
H1458       H  0.08816976  0.37251809  0.51487022     0.12100
H1459       H  0.01983922  0.33837910  0.49288188     0.11600
H1460       H  0.03174910  0.30020309  0.51380260     0.11800
H1461       H  0.02844698  0.38124296  0.47848509     0.14600
H1462       H  0.06366565  0.40612032  0.51511544     0.13300
H1463       H  0.09110745  0.29401023  0.55291250     0.11000
H1464       H  0.04788221  0.26634164  0.52919444     0.13000
C1465       C  0.96215377  0.36430398  0.48014912     0.19100
C1466       C  0.95791869  0.35808767  0.45509324    -0.19000
C1467       C  0.95391811  0.33349520  0.44803575    -0.11300
C1468       C  0.95417622  0.31432008  0.46590099     0.21300
C1469       C  0.95878576  0.32035614  0.49093848    -0.20600
C1470       C  0.96258625  0.34508335  0.49807911    -0.11500
C1471       C  0.95074597  0.28790970  0.45856637    -0.15600
C1472       C  0.93611185  0.28121949  0.43952034    -0.29500
C1473       C  0.96800365  0.39069279  0.48604101    -0.03700
C1474       C  0.96909618  0.40042630  0.50917817    -0.40300
H1475       H  0.95799567  0.37234485  0.44077272     0.12500
H1476       H  0.95127589  0.32949443  0.42844524     0.12100
H1477       H  0.95946288  0.30588531  0.50500927     0.11600
H1478       H  0.96651354  0.34882685  0.51745963     0.11800
H1479       H  0.95985200  0.27367473  0.46952157     0.14600
H1480       H  0.92547922  0.29527672  0.42986684     0.13300
H1481       H  0.97284553  0.40254573  0.47027300     0.11000
H1482       H  0.96451854  0.38929558  0.52546375     0.13000
C1483       C  0.94853284  0.65825274  0.55535887     0.19100
C1484       C  0.94695649  0.64861773  0.53110500    -0.19000
C1485       C  0.95209581  0.62355313  0.52661286    -0.11300
C1486       C  0.95942450  0.60791002  0.54629339     0.21300
C1487       C  0.96108840  0.61764495  0.57046138    -0.20600
C1488       C  0.95551278  0.64245668  0.57501260    -0.11500
C1489       C  0.96899018  0.58261422  0.54184629    -0.15600
C1490       C  0.96184812  0.56765288  0.52312942    -0.29500
C1491       C  0.94412873  0.68501605  0.55989417    -0.03700
C1492       C  0.93280039  0.69276398  0.58079626    -0.40300
H1493       H  0.94192942  0.66053463  0.51564221     0.12500
H1494       H  0.95144317  0.61677148  0.50762462     0.12100
H1495       H  0.96726414  0.60612081  0.58579626     0.11600
H1496       H  0.95756738  0.64949397  0.59380236     0.11800
H1497       H  0.98358499  0.57644886  0.55417754     0.14600
H1498       H  0.94630173  0.57251073  0.51149320     0.13300
H1499       H  0.94998337  0.69839172  0.54583339     0.11000
H1500       H  0.92521243  0.67912369  0.59371490     0.13000
C1501       C  0.07766184  0.64731805  0.43348052     0.19100
C1502       C  0.09241771  0.63107042  0.44741585    -0.19000
C1503       C  0.08298058  0.60822963  0.45585865    -0.11300
C1504       C  0.05875268  0.60119300  0.44998631     0.21300
C1505       C  0.04460470  0.61703666  0.43498226    -0.20600
C1506       C  0.05386642  0.63980201  0.42690032    -0.11500
C1507       C  0.04675334  0.57809293  0.45922367    -0.15600
C1508       C  0.05462088  0.56348422  0.47811203    -0.29500
C1509       C  0.08683116  0.67227422  0.42618199    -0.03700
C1510       C  0.07197790  0.69213569  0.42749165    -0.40300
H1511       H  0.11095106  0.63639188  0.45240164     0.12500
H1512       H  0.09461880  0.59633703  0.46696387     0.12100
H1513       H  0.02599876  0.61204215  0.42989854     0.11600
H1514       H  0.04231034  0.65162212  0.41555857     0.11800
H1515       H  0.02905296  0.57388572  0.45091434     0.14600
H1516       H  0.07212300  0.56677295  0.48708983     0.13300
H1517       H  0.10598739  0.67450530  0.42075369     0.11000
H1518       H  0.05350415  0.68991022  0.43503325     0.13000
C1519       C  0.44105621  0.05408163  0.67525139     0.19100
C1520       C  0.44412963  0.06950791  0.65418524    -0.19000
C1521       C  0.45051484  0.05972437  0.63080918    -0.11300
C1522       C  0.45394945  0.03407347  0.62779755     0.21300
C1523       C  0.45121545  0.01864405  0.64892173    -0.20600
C1524       C  0.44494179  0.02845497  0.67236547    -0.11500
C1525       C  0.45901523  0.02252116  0.60290134    -0.15600
C1526       C  0.46820348  0.03467870  0.58271893    -0.29500
C1527       C  0.43193183  0.06541827  0.69906274    -0.03700
C1528       C  0.43180907  0.05435763  0.72182548    -0.40300
H1529       H  0.44107347  0.08928273  0.65569003     0.12500
H1530       H  0.45189965  0.07227883  0.61506673     0.12100
H1531       H  0.45359952  0.99878699  0.64720892     0.11600
H1532       H  0.44238340  0.01576757  0.68784928     0.11800
H1533       H  0.45574961  0.00268979  0.60140877     0.14600
H1534       H  0.47331632  0.05406990  0.58404629     0.13300
H1535       H  0.42462149  0.08409084  0.69757853     0.11000
H1536       H  0.43993448  0.03619209  0.72431981     0.13000
C1537       C  0.53127398  0.93083471  0.60329644     0.19100
C1538       C  0.55568892  0.92532618  0.60944750    -0.19000
C1539       C  0.56197377  0.91900243  0.63393776    -0.11300
C1540       C  0.54410481  0.91888947  0.65293747     0.21300
C1541       C  0.51943411  0.92340165  0.64663411    -0.20600
C1542       C  0.51305481  0.92920762  0.62198365    -0.11500
C1543       C  0.55198419  0.91472065  0.67913457    -0.15600
C1544       C  0.54129564  0.92608520  0.69873465    -0.29500
C1545       C  0.52614695  0.94260327  0.57883613    -0.03700
C1546       C  0.50450097  0.94099541  0.56689308    -0.40300
H1547       H  0.57006847  0.92676610  0.59542506     0.12500
H1548       H  0.58106329  0.91540277  0.63829296     0.12100
H1549       H  0.50514407  0.92289771  0.66077833     0.11600
H1550       H  0.49414578  0.93386782  0.61790980     0.11800
H1551       H  0.56844087  0.90373423  0.68210555     0.14600
H1552       H  0.52588746  0.93848507  0.69572405     0.13300
H1553       H  0.54022961  0.95502149  0.57144957     0.11000
H1554       H  0.49072272  0.92753540  0.57274227     0.13000
C1555       C  0.32600317  0.07243429  0.47682780     0.19100
C1556       C  0.34748607  0.08670227  0.47928690    -0.19000
C1557       C  0.36847900  0.07689561  0.49067372    -0.11300
C1558       C  0.36857820  0.05230145  0.49966319     0.21300
C1559       C  0.34678701  0.03837110  0.49800642    -0.20600
C1560       C  0.32581681  0.04818341  0.48667718    -0.11500
C1561       C  0.39119367  0.03948911  0.50871400    -0.15600
C1562       C  0.41427583  0.04839522  0.50603968    -0.29500
C1563       C  0.30505760  0.08279264  0.46222328    -0.03700
C1564       C  0.28207126  0.07335833  0.46262842    -0.40300
H1565       H  0.34820330  0.10543011  0.47190657     0.12500
H1566       H  0.38456226  0.08859137  0.49181172     0.12100
H1567       H  0.34624670  0.01934552  0.50459992     0.11600
H1568       H  0.30999215  0.03621457  0.48479591     0.11800
H1569       H  0.38893661  0.02035221  0.51482848     0.14600
H1570       H  0.41747860  0.06701316  0.49906836     0.13300
H1571       H  0.30895798  0.09860535  0.45017159     0.11000
H1572       H  0.27741504  0.05822186  0.47518427     0.13000
C1573       C  0.37771088  0.93187536  0.49902948     0.19100
C1574       C  0.35672677  0.94685125  0.49605360    -0.19000
C1575       C  0.33431715  0.94017147  0.50731411    -0.11300
C1576       C  0.33234868  0.91834650  0.52180376     0.21300
C1577       C  0.35303771  0.90300748  0.52382788    -0.20600
C1578       C  0.37535654  0.90964674  0.51257858    -0.11500
C1579       C  0.31003914  0.91185409  0.53686576    -0.15600
C1580       C  0.28788443  0.92258669  0.53412424    -0.29500
C1581       C  0.40294616  0.94016034  0.49175269    -0.03700
C1582       C  0.40818968  0.96045584  0.47791148    -0.40300
H1583       H  0.35766889  0.96438987  0.48626138     0.12500
H1584       H  0.31909610  0.95287030  0.50555611     0.12100
H1585       H  0.35217402  0.88614645  0.53486884     0.11600
H1586       H  0.39117015  0.89780243  0.51538774     0.11800
H1587       H  0.31220868  0.89790709  0.55138761     0.14600
H1588       H  0.28485707  0.93598451  0.51933555     0.13300
H1589       H  0.41808178  0.93039865  0.50058042     0.11000
H1590       H  0.39376616  0.97044346  0.46828996     0.13000
C1591       C  0.52313118  0.07754619  0.33348730     0.19100
C1592       C  0.52463273  0.09053778  0.35611915    -0.19000
C1593       C  0.50966029  0.08414791  0.37651150    -0.11300
C1594       C  0.49286643  0.06432799  0.37485566     0.21300
C1595       C  0.49040932  0.05219065  0.35186638    -0.20600
C1596       C  0.50530507  0.05864124  0.33142186    -0.11500
C1597       C  0.47909217  0.05440245  0.39693490    -0.15600
C1598       C  0.48706434  0.05712724  0.42051361    -0.29500
C1599       C  0.54086762  0.08412365  0.31303534    -0.03700
C1600       C  0.54291155  0.07187972  0.29121479    -0.40300
H1601       H  0.53781652  0.10545184  0.35823039     0.12500
H1602       H  0.51160494  0.09462297  0.39355373     0.12100
H1603       H  0.47750103  0.03699962  0.34994066     0.11600
H1604       H  0.50286377  0.04836200  0.31437543     0.11800
H1605       H  0.46451096  0.04104071  0.39346741     0.14600
H1606       H  0.50310598  0.06844397  0.42424858     0.13300
H1607       H  0.55332520  0.09949691  0.31643664     0.11000
H1608       H  0.53090066  0.05646609  0.28702573     0.13000
C1609       C  0.46731446  0.96900734  0.36523370     0.19100
C1610       C  0.45138773  0.98281919  0.34997480    -0.19000
C1611       C  0.44524056  0.97459080  0.32598295    -0.11300
C1612       C  0.45457035  0.95205795  0.31690495     0.21300
C1613       C  0.47077421  0.93845009  0.33200251    -0.20600
C1614       C  0.47728591  0.94690384  0.35579036    -0.11500
C1615       C  0.44524252  0.94063336  0.29350867    -0.15600
C1616       C  0.43738234  0.95347790  0.27338604    -0.29500
C1617       C  0.47162048  0.97723215  0.39142268    -0.03700
C1618       C  0.49208807  0.97209932  0.40458916    -0.40300
H1619       H  0.44328929  0.99981731  0.35684826     0.12500
H1620       H  0.43222642  0.98522969  0.31512925     0.12100
H1621       H  0.47793104  0.92085365  0.32560496     0.11600
H1622       H  0.48920630  0.93551379  0.36714822     0.11800
H1623       H  0.44435659  0.92050707  0.29312538     0.14600
H1624       H  0.43975947  0.97344952  0.27249228     0.13300
H1625       H  0.45776308  0.98909761  0.39985456     0.11000
H1626       H  0.50730476  0.96240772  0.39584183     0.13000
C1627       C  0.65408770  0.06396121  0.51264029     0.19100
C1628       C  0.63345887  0.07957970  0.51297692    -0.19000
C1629       C  0.61113440  0.07205637  0.50262246    -0.11300
C1630       C  0.60869874  0.04837887  0.49195232     0.21300
C1631       C  0.62964721  0.03319581  0.49053298    -0.20600
C1632       C  0.65208576  0.04080522  0.50080090    -0.11500
C1633       C  0.58452192  0.03809122  0.48378506    -0.15600
C1634       C  0.56262895  0.04719835  0.49130759    -0.29500
C1635       C  0.67648983  0.07214272  0.52631284    -0.03700
C1636       C  0.69899875  0.06170940  0.52460003    -0.40300
H1637       H  0.63447359  0.09762333  0.52173025     0.12500
H1638       H  0.59588240  0.08482250  0.50343470     0.12100
H1639       H  0.62841455  0.01491366  0.48232469     0.11600
H1640       H  0.66738547  0.02807217  0.50023743     0.11800
H1641       H  0.58477347  0.02056230  0.47382925     0.14600
H1642       H  0.56173070  0.06379449  0.50259208     0.13300
H1643       H  0.67415581  0.08794317  0.53861799     0.11000
H1644       H  0.70243106  0.04666232  0.51170082     0.13000
C1645       C  0.64891800  0.93204234  0.46477551     0.19100
C1646       C  0.62626497  0.92251833  0.45673237    -0.19000
C1647       C  0.60414420  0.93015316  0.46772760    -0.11300
C1648       C  0.60412560  0.94750693  0.48731680     0.21300
C1649       C  0.62682547  0.95657244  0.49576334    -0.20600
C1650       C  0.64894186  0.94891829  0.48478510    -0.11500
C1651       C  0.58114807  0.95851204  0.49784720    -0.15600
C1652       C  0.55813925  0.95088629  0.49247484    -0.29500
C1653       C  0.67182729  0.92373046  0.45178206    -0.03700
C1654       C  0.69399092  0.93469202  0.45419766    -0.40300
H1655       H  0.62561229  0.90942995  0.44145553     0.12500
H1656       H  0.58725947  0.92286956  0.46017826     0.12100
H1657       H  0.62746245  0.97000973  0.51073437     0.11600
H1658       H  0.66583719  0.95636330  0.49216414     0.11800
H1659       H  0.58334053  0.97523042  0.50890222     0.14600
H1660       H  0.55505934  0.93442104  0.48140557     0.13300
H1661       H  0.67016617  0.90815571  0.43908562     0.11000
H1662       H  0.69621708  0.95067599  0.46615886     0.13000
loop_ 
_geom_bond_atom_site_label_1 
_geom_bond_atom_site_label_2 
_geom_bond_distance 
_geom_bond_site_symmetry_2 
_ccdc_geom_bond_type 
O1            C9   1.267       .  A
O1          Co21   1.964       .  S
O2           C10   1.262       .  A
O2          Co22   1.975       .  S
O3           C11   1.271       .  A
O3          Co23   1.998   1_565  S
O4           C12   1.295       .  A
O4          Co24   2.104   1_565  S
O5           C11   1.268       .  A
O5          Co22   1.983       .  S
O6           C12   1.265       .  A
O6          Co21   1.904       .  S
O7           C10   1.266       .  A
O7          Co24   2.013   1_565  S
O8            C9   1.282       .  A
O8          Co23   2.040   1_565  S
C9         C1652   1.479       .  S
C10        C1582   1.480       .  S
C11        C1546   1.476       .  S
C12        C1618   1.481       .  S
O13          C26   1.291       .  A
O13         Co21   2.096   1_545  S
O14          C27   1.273       .  A
O14         Co22   2.022   1_545  S
O15          C28   1.259       .  A
O15         Co23   1.976       .  S
O16          C29   1.268       .  A
O16         Co24   1.968       .  S
O17          C29   1.281       .  A
O17         Co22   2.035   1_545  S
O18          C28   1.266       .  A
O18         Co21   2.018   1_545  S
O19          C26   1.270       .  A
O19         Co24   1.911       .  S
O20          C27   1.268       .  A
O20         Co23   1.986       .  S
Co21         O25   2.005       .  S
Co22         O25   2.038       .  S
Co23         O25   2.025   1_545  S
Co24         O25   2.022   1_545  S
C26        C1598   1.472       .  S
C27        C1526   1.488       .  S
C28        C1634   1.477       .  S
C29        C1562   1.479       .  S
O30          C38   1.273       .  A
O30         Co50   1.999   1_455  S
O31          C39   1.294       .  A
O31         Co51   2.098       .  S
O32          C40   1.263       .  A
O32         Co52   1.977       .  S
O33          C41   1.268       .  A
O33         Co53   1.967       .  S
O34          C40   1.262       .  A
O34         Co51   2.004       .  S
O35          C41   1.280       .  A
O35         Co50   2.037   1_455  S
O36          C39   1.271       .  A
O36         Co53   1.906       .  S
O37          C38   1.272       .  A
O37         Co52   1.991       .  S
C38        C1508   1.484       .  S
C39        C1454   1.473       .  S
C40        C1418   1.483       .  S
C41        C1384   1.478       .  S
O42          C55   1.259       .  A
O42         Co50   1.974       .  S
O43          C56   1.271       .  A
O43         Co51   1.968   1_655  S
O44          C57   1.269       .  A
O44         Co52   1.995   1_655  S
O45          C58   1.294       .  A
O45         Co53   2.097   1_655  S
O46          C58   1.264       .  A
O46         Co51   1.906   1_655  S
O47          C57   1.267       .  A
O47         Co50   1.985       .  S
O48          C55   1.268       .  A
O48         Co53   2.025   1_655  S
O49          C56   1.282       .  A
O49         Co52   2.033   1_655  S
Co50         O54   2.027   1_655  S
Co51         O54   2.000       .  S
Co52         O54   2.041       .  S
Co53         O54   2.023       .  S
C55        C1402   1.481       .  S
C56        C1438   1.476       .  S
C57        C1490   1.479       .  S
C58        C1474   1.482       .  S
O59          C67   1.257       .  A
O59         Co79   1.973       .  S
O60          C68   1.267       .  A
O60         Co80   1.967       .  S
O61          C69   1.295       .  A
O61         Co81   2.100   1_556  S
O62          C70   1.271       .  A
O62         Co82   2.010   1_556  S
O63          C69   1.265       .  A
O63         Co80   1.897       .  S
O64          C70   1.268       .  A
O64         Co79   1.987       .  S
O65          C68   1.281       .  A
O65         Co82   2.036   1_556  S
O66          C67   1.268       .  A
O66         Co81   2.034   1_556  S
C67        C1364   1.484       .  S
C68        C1292   1.479       .  S
C69        C1328   1.473       .  S
C70        C1256   1.485       .  S
O71          C84   1.271       .  A
O71         Co79   1.996   1_554  S
O72          C85   1.295       .  A
O72         Co80   2.098   1_554  S
O73          C86   1.267       .  A
O73         Co81   1.962       .  S
O74          C87   1.263       .  A
O74         Co82   1.978       .  S
O75          C87   1.264       .  A
O75         Co80   2.007   1_554  S
O76          C86   1.283       .  A
O76         Co79   2.042   1_554  S
O77          C84   1.269       .  A
O77         Co82   1.991       .  S
O78          C85   1.268       .  A
O78         Co81   1.911       .  S
Co79         O83   2.023       .  S
Co80         O83   2.006       .  S
Co81         O83   2.019   1_554  S
Co82         O83   2.043   1_554  S
C84        C1238   1.483       .  S
C85        C1312   1.488       .  S
C86        C1348   1.477       .  S
C87        C1274   1.481       .  S
C88        C1544   1.480       .  S
C88          N89   1.360       .  A
C88          N93   1.360       .  A
N89          C90   1.360       .  A
C90        C1222   1.479       .  S
C90          N91   1.356       .  A
N91          C92   1.360       .  A
C92        C1202   1.481       .  S
C92          N93   1.359       .  A
C94        C1166   1.477       .  S
C94          N95   1.360       .  A
C94          N99   1.361       .  A
N95          C96   1.361       .  A
C96        C1220   1.477       .  S
C96          N97   1.357       .  A
N97          C98   1.355       .  A
C98        C1184   1.474       .  S
C98          N99   1.358       .  A
C100       C1492   1.475       .  S
C100        N101   1.361       .  A
C100        N105   1.354       .  A
N101        C102   1.363       .  A
C102       C1148   1.486       .  S
C102        N103   1.364       .  A
N103        C104   1.359       .  A
C104       C1186   1.480       .  S
C104        N105   1.356       .  A
C106       C1130   1.478       .  S
C106        N107   1.363       .  A
C106        N111   1.355       .  A
N107        C108   1.364       .  A
C108       C1294   1.484       .  S
C108        N109   1.361       .  A
N109        C110   1.356       .  A
C110       C1168   1.474       .  S
C110        N111   1.355       .  A
C112       C1096   1.481       .  S
C112        N113   1.361       .  A
C112        N117   1.365       .  A
N113        C114   1.359       .  A
C114       C1078   1.481       .  S
C114        N115   1.356       .  A
N115        C116   1.359       .  A
C116       C1112   1.483       .  S
C116        N117   1.364       .  A
C118       C1366   1.492       .  S
C118        N119   1.367       .  A
C118        N123   1.366       .  A
N119        C120   1.364       .  A
C120       C1060   1.484       .  S
C120        N121   1.356       .  A
N121        C122   1.357       .  A
C122       C1114   1.488       .  S
C122        N123   1.360       .  A
C124       C1040   1.493       .  S
C124        N125   1.367       .  A
C124        N129   1.362       .  A
N125        C126   1.365       .  A
C126       C1528   1.492       .  S
C126        N127   1.360       .  A
N127        C128   1.357       .  A
C128       C1094   1.483       .  S
C128        N129   1.361       .  A
C130       C1022   1.487       .  S
C130        N131   1.363       .  A
C130        N135   1.362       .  A
N131        C132   1.362       .  A
C132       C1076   1.480       .  S
C132        N133   1.358       .  A
N133        C134   1.359       .  A
C134       C1456   1.484       .  S
C134        N135   1.359       .  A
O136        C144   1.260   1_565  A
O136       Co156   1.973       .  S
O137        C145   1.264   1_545  A
O137       Co157   1.976       .  S
O138        C146   1.261       .  A
O138       Co158   2.013       .  S
O139        C147   1.261       .  A
O139       Co159   2.013       .  S
O140        C146   1.256   1_554  A
O140       Co157   1.972       .  S
O141        C147   1.257   1_556  A
O141       Co156   1.983       .  S
O142        C145   1.270       .  A
O142       Co159   2.019       .  S
O143        C144   1.270       .  A
O143       Co158   2.025       .  S
C144       C1204   1.470       .  S
C145        C950   1.480       .  S
C146       C1004   1.485       .  S
C147        C914   1.491       .  S
O148        C161   1.303   1_556  A
O148       Co156   2.103       .  S
O149        C162   1.301   1_554  A
O149       Co157   2.095       .  S
O150        C163   1.264   1_545  A
O150       Co158   1.966       .  S
O151        C164   1.268   1_565  A
O151       Co159   1.968       .  S
O152        C164   1.271       .  A
O152       Co157   2.009       .  S
O153        C163   1.277       .  A
O153       Co156   2.035       .  S
O154        C161   1.274       .  A
O154       Co159   1.893       .  S
O155        C162   1.274       .  A
O155       Co158   1.896       .  S
Co156       O160   2.087   1_566  S
Co157       O160   2.088       .  S
Co158       O160   1.978   1_556  S
Co159       O160   1.977   1_565  S
C161        C934   1.481       .  S
C162        C986   1.480       .  S
C163       C1042   1.490   1_565  S
C164        C970   1.473       .  S
C165        C896   1.479       .  S
C165        N166   1.358       .  A
C165        N170   1.358       .  A
N166        C167   1.361       .  A
C167        C878   1.483       .  S
C167        N168   1.361       .  A
N168        C169   1.361       .  A
C169        C860   1.474       .  S
C169        N170   1.356       .  A
C171       C1330   1.482       .  S
C171        N172   1.362       .  A
C171        N176   1.359       .  A
N172        C173   1.364       .  A
C173        C932   1.479       .  S
C173        N174   1.359       .  A
N174        C175   1.357       .  A
C175        C898   1.477       .  S
C175        N176   1.353       .  A
C177        C844   1.479       .  S
C177        N178   1.357       .  A
C177        N182   1.358       .  A
N178        C179   1.354       .  A
C179        C880   1.473       .  S
C179        N180   1.361       .  A
N180        C181   1.365       .  A
C181       C1580   1.482       .  S
C181        N182   1.361       .  A
C183        C824   1.490       .  S
C183        N184   1.368       .  A
C183        N188   1.363       .  A
N184        C185   1.366       .  A
C185       C1420   1.485       .  S
C185        N186   1.357       .  A
N186        C187   1.356       .  A
C187        C862   1.479       .  S
C187        N188   1.356       .  A
C189        C788   1.478       .  S
C189        N190   1.353       .  A
C189        N194   1.358       .  A
N190        C191   1.356       .  A
C191        C806   1.476       .  S
C191        N192   1.363       .  A
N192        C193   1.365       .  A
C193        C770   1.479       .  S
C193        N194   1.360       .  A
C195       C1472   1.481       .  S
C195        N196   1.362       .  A
C195        N200   1.358       .  A
N196        C197   1.362       .  A
C197        C754   1.484       .  S
C197        N198   1.361       .  A
N198        C199   1.357       .  A
C199        C808   1.482       .  S
C199        N200   1.359       .  A
C201        C734   1.484       .  S
C201        N202   1.363       .  A
C201        N206   1.366       .  A
N202        C203   1.360       .  A
C203        C790   1.476       .  S
C203        N204   1.354       .  A
N204        C205   1.355       .  A
C205       C1276   1.481       .  S
C205        N206   1.362       .  A
C207       C1600   1.481       .  S
C207        N208   1.359       .  A
C207        N212   1.362       .  A
N208        C209   1.359       .  A
C209        C952   1.480       .  S
C209        N210   1.358       .  A
N210        C211   1.361       .  A
C211        C772   1.483       .  S
C211        N212   1.360       .  A
O213        C221   1.274       .  A
O213       Co233   2.009       .  S
O214        C222   1.297   1_554  A
O214       Co234   2.107       .  S
O215        C223   1.263       .  A
O215       Co235   1.982   1_455  S
O216        C224   1.269       .  A
O216       Co236   1.975       .  S
O217        C223   1.262       .  A
O217       Co234   2.002       .  S
O218        C224   1.277   1_655  A
O218       Co233   2.028       .  S
O219        C222   1.269       .  A
O219       Co236   1.899       .  S
O220        C221   1.270   1_554  A
O220       Co235   1.982       .  S
C221       C1132   1.481       .  S
C222        C716   1.475       .  S
C223        C680   1.479       .  S
C224        C826   1.483       .  S
O225        C238   1.265       .  A
O225       Co233   1.976   1_455  S
O226        C239   1.269       .  A
O226       Co234   1.969       .  S
O227        C240   1.269       .  A
O227       Co235   1.998       .  S
O228        C241   1.297   1_556  A
O228       Co236   2.121       .  S
O229        C241   1.263       .  A
O229       Co234   1.898       .  S
O230        C240   1.268   1_556  A
O230       Co233   1.994       .  S
O231        C238   1.266       .  A
O231       Co236   2.005       .  S
O232        C239   1.282   1_655  A
O232       Co235   2.033       .  S
Co233       O237   2.043   1_656  S
Co234       O237   2.002       .  S
Co235       O237   2.045   1_655  S
Co236       O237   2.017   1_556  S
C238        C662   1.476       .  S
C239        C700   1.481       .  S
C240        C736   1.486       .  S
C241       C1058   1.483   1_554  S
C242        C626   1.480       .  S
C242        N243   1.360       .  A
C242        N247   1.356       .  A
N243        C244   1.362       .  A
C244       C1564   1.482       .  S
C244        N245   1.364       .  A
N245        C246   1.361       .  A
C246        C644   1.476       .  S
C246        N247   1.356       .  A
C248        C646   1.481       .  S
C248        N249   1.361       .  A
C248        N253   1.360       .  A
N249        C250   1.362       .  A
C250        C610   1.479       .  S
C250        N251   1.359       .  A
N251        C252   1.359       .  A
C252        C590   1.477       .  S
C252        N253   1.357       .  A
C254       C1382   1.481       .  S
C254        N255   1.357       .  A
C254        N259   1.360       .  A
N255        C256   1.357       .  A
C256        C698   1.481       .  S
C256        N257   1.362       .  A
N257        C258   1.362       .  A
C258        C608   1.482       .  S
C258        N259   1.362       .  A
C260       C1240   1.478       .  S
C260        N261   1.362       .  A
C260        N265   1.360       .  A
N261        C262   1.361       .  A
C262        C592   1.475       .  S
C262        N263   1.356       .  A
N263        C264   1.356       .  A
C264        C988   1.477       .  S
C264        N265   1.359       .  A
C266        C572   1.474       .  S
C266        N267   1.361       .  A
C266        N271   1.357       .  A
N267        C268   1.361       .  A
C268        C554   1.476       .  S
C268        N269   1.358       .  A
N269        C270   1.358       .  A
C270        C536   1.475       .  S
C270        N271   1.356       .  A
C272       C1436   1.483       .  S
C272        N273   1.361       .  A
C272        N277   1.363       .  A
N273        C274   1.355       .  A
C274        C574   1.474       .  S
C274        N275   1.356       .  A
N275        C276   1.357       .  A
C276        C664   1.478       .  S
C276        N277   1.363       .  A
C278       C1006   1.480       .  S
C278        N279   1.356       .  A
C278        N283   1.365       .  A
N279        C280   1.355       .  A
C280        C556   1.479       .  S
C280        N281   1.356       .  A
N281        C282   1.362       .  A
C282       C1258   1.486       .  S
C282        N283   1.366       .  A
C284        C518   1.476       .  S
C284        N285   1.353       .  A
C284        N289   1.364       .  A
N285        C286   1.354       .  A
C286        C538   1.480       .  S
C286        N287   1.355       .  A
N287        C288   1.363       .  A
C288       C1636   1.487       .  S
C288        N289   1.367       .  A
C290        C500   1.480       .  S
C290        N291   1.358       .  A
C290        N295   1.356       .  A
N291        C292   1.358       .  A
C292        C464   1.478       .  S
C292        N293   1.363       .  A
N293        C294   1.363       .  A
C294        C482   1.475       .  S
C294        N295   1.358       .  A
C296       C1654   1.482       .  S
C296        N297   1.359       .  A
C296        N301   1.361       .  A
N297        C298   1.358       .  A
C298        C446   1.478       .  S
C298        N299   1.358       .  A
N299        C300   1.360       .  A
C300        C502   1.480       .  S
C300        N301   1.360       .  A
C302        C682   1.482       .  S
C302        N303   1.355       .  A
C302        N307   1.365       .  A
N303        C304   1.356       .  A
C304        C484   1.482       .  S
C304        N305   1.358       .  A
N305        C306   1.364       .  A
C306       C1400   1.490       .  S
C306        N307   1.366       .  A
C308        C916   1.488       .  S
C308        N309   1.366       .  A
C308        N313   1.364       .  A
N309        C310   1.363       .  A
C310       C1310   1.485       .  S
C310        N311   1.356       .  A
N311        C312   1.358       .  A
C312        C466   1.483       .  S
C312        N313   1.361       .  A
C314        C410   1.480       .  S
C314        N315   1.359       .  A
C314        N319   1.359       .  A
N315        C316   1.361       .  A
C316        C394   1.481       .  S
C316        N317   1.358       .  A
N317        C318   1.360       .  A
C318        C428   1.475       .  S
C318        N319   1.357       .  A
C320       C1616   1.486       .  S
C320        N321   1.361       .  A
C320        N325   1.367       .  A
N321        C322   1.355       .  A
C322        C430   1.476       .  S
C322        N323   1.355       .  A
N323        C324   1.356       .  A
C324        C968   1.481       .  S
C324        N325   1.366       .  A
C326        C374   1.480       .  S
C326        N327   1.355       .  A
C326        N331   1.361       .  A
N327        C328   1.356       .  A
C328       C1510   1.474       .  S
C328        N329   1.359       .  A
N329        C330   1.363       .  A
C330        C412   1.481       .  S
C330        N331   1.362       .  A
C332       C1346   1.478       .  S
C332        N333   1.363       .  A
C332        N337   1.358       .  A
N333        C334   1.362       .  A
C334        C392   1.477       .  S
C334        N335   1.358       .  A
N335        C336   1.357       .  A
C336        C718   1.475       .  S
C336        N337   1.356       .  A
O338        C346   1.257   1_655  A
O338       Co358   1.973       .  S
O339        C347   1.266   1_455  A
O339       Co359   1.963       .  S
O340        C348   1.294       .  A
O340       Co360   2.092       .  S
O341        C349   1.271   1_545  A
O341       Co361   1.995       .  S
O342        C348   1.266   1_545  A
O342       Co359   1.900       .  S
O343        C349   1.272       .  A
O343       Co358   1.993       .  S
O344        C347   1.283       .  A
O344       Co361   2.046       .  S
O345        C346   1.267       .  A
O345       Co360   2.028       .  S
C346       C1150   1.479       .  S
C347       C1024   1.481       .  S
C348        C842   1.473       .  S
C349        C520   1.485   1_565  S
O350        C363   1.269       .  A
O350       Co358   1.987       .  S
O351        C364   1.294       .  A
O351       Co359   2.097   1_565  S
O352        C365   1.264   1_455  A
O352       Co360   1.957       .  S
O353        C366   1.258       .  A
O353       Co361   1.975   1_455  S
O354        C366   1.266       .  A
O354       Co359   2.016       .  S
O355        C365   1.283       .  A
O355       Co358   2.052       .  S
O356        C363   1.268       .  A
O356       Co361   1.989   1_565  S
O357        C364   1.266       .  A
O357       Co360   1.908       .  S
Co358       O362   2.030       .  S
Co359       O362   2.009   1_445  S
Co360       O362   2.011   1_455  S
Co361       O362   2.030   1_545  S
C363        C448   1.480       .  S
C364        C628   1.481       .  S
C365        C376   1.476   1_655  S
C366        C752   1.477       .  S
C367        C375   1.494       .  S
C367        C368   1.403       .  A
C367        C372   1.410       .  A
C368        C369   1.400       .  A
C368        H377   1.084   1_455  S
C369        C370   1.411       .  A
C369        H378   1.079       .  S
C370        C373   1.497       .  S
C370        C371   1.404       .  A
C371        C372   1.400       .  A
C371        H379   1.084       .  S
C372        H380   1.080       .  S
C373        H381   1.087       .  S
C373        C374   1.347       .  D
C374        H382   1.082       .  S
C375        H383   1.088   1_455  S
C375        C376   1.347       .  D
C376        H384   1.084       .  S
C385        C393   1.489       .  S
C385        C386   1.402       .  A
C385        C390   1.410       .  A
C386        C387   1.395       .  A
C386        H395   1.084       .  S
C387        C388   1.407       .  A
C387        H396   1.082       .  S
C388        C391   1.489       .  S
C388        C389   1.404       .  A
C389        C390   1.403       .  A
C389        H397   1.083       .  S
C390        H398   1.081       .  S
C391        H399   1.086       .  S
C391        C392   1.346       .  D
C392        H400   1.085       .  S
C393        H401   1.087       .  S
C393        C394   1.346       .  D
C394        H402   1.084       .  S
C403        C411   1.493       .  S
C403        C404   1.405       .  A
C403        C408   1.409       .  A
C404        C405   1.399       .  A
C404        H413   1.084       .  S
C405        C406   1.408       .  A
C405        H414   1.080       .  S
C406        C409   1.491       .  S
C406        C407   1.404       .  A
C407        C408   1.400       .  A
C407        H415   1.084       .  S
C408        H416   1.080       .  S
C409        H417   1.087       .  S
C409        C410   1.349       .  D
C410        H418   1.084       .  S
C411        H419   1.087       .  S
C411        C412   1.349       .  D
C412        H420   1.083       .  S
C421        C429   1.480       .  S
C421        C422   1.402       .  A
C421        C426   1.405       .  A
C422        C423   1.398       .  A
C422        H431   1.083       .  S
C423        C424   1.406       .  A
C423        H432   1.083       .  S
C424        C427   1.482       .  S
C424        C425   1.403       .  A
C425        C426   1.399       .  A
C425        H433   1.083       .  S
C426        H434   1.083       .  S
C427        H435   1.087       .  S
C427        C428   1.344       .  D
C428        H436   1.086       .  S
C429        H437   1.087       .  S
C429        C430   1.344       .  D
C430        H438   1.086       .  S
C439        C447   1.482       .  S
C439        C440   1.404       .  A
C439        C444   1.405       .  A
C440        C441   1.392       .  A
C440        H449   1.085       .  S
C441        C442   1.406       .  A
C441        H450   1.080       .  S
C442        C445   1.490       .  S
C442        C443   1.408       .  A
C443        C444   1.404       .  A
C443        H451   1.084       .  S
C444        H452   1.081       .  S
C445        H453   1.087       .  S
C445        C446   1.349       .  D
C446        H454   1.085       .  S
C447        H455   1.089       .  S
C447        C448   1.352       .  D
C448        H456   1.085       .  S
C457        C465   1.485       .  S
C457        C458   1.403       .  A
C457        C462   1.406       .  A
C458        C459   1.399       .  A
C458        H467   1.083       .  S
C459        C460   1.406       .  A
C459        H468   1.083       .  S
C460        C463   1.488       .  S
C460        C461   1.405       .  A
C461        C462   1.403       .  A
C461        H469   1.083       .  S
C462        H470   1.083       .  S
C463        H471   1.087       .  S
C463        C464   1.346       .  D
C464        H472   1.086       .  S
C465        H473   1.087       .  S
C465        C466   1.348       .  D
C466        H474   1.086       .  S
C475        C483   1.485       .  S
C475        C476   1.403       .  A
C475        C480   1.407       .  A
C476        C477   1.398       .  A
C476        H485   1.083       .  S
C477        C478   1.405       .  A
C477        H486   1.083       .  S
C478        C481   1.484       .  S
C478        C479   1.404       .  A
C479        C480   1.402       .  A
C479        H487   1.083       .  S
C480        H488   1.082       .  S
C481        H489   1.087       .  S
C481        C482   1.344       .  D
C482        H490   1.087       .  S
C483        H491   1.087       .  S
C483        C484   1.348       .  D
C484        H492   1.086       .  S
C493        C501   1.489       .  S
C493        C494   1.404       .  A
C493        C498   1.407       .  A
C494        C495   1.399       .  A
C494        H503   1.084       .  S
C495        C496   1.409       .  A
C495        H504   1.080       .  S
C496        C499   1.492       .  S
C496        C497   1.405       .  A
C497        C498   1.399       .  A
C497        H505   1.083       .  S
C498        H506   1.081       .  S
C499        H507   1.087       .  S
C499        C500   1.348       .  D
C500        H508   1.083       .  S
C501        H509   1.087       .  S
C501        C502   1.348       .  D
C502        H510   1.084       .  S
C511        C519   1.486       .  S
C511        C512   1.403       .  A
C511        C516   1.408       .  A
C512        C513   1.396       .  A
C512        H521   1.084       .  S
C513        C514   1.406       .  A
C513        H522   1.082       .  S
C514        C517   1.492       .  S
C514        C515   1.406       .  A
C515        C516   1.406       .  A
C515        H523   1.083   1_545  S
C516        H524   1.082   1_545  S
C517        H525   1.086       .  S
C517        C518   1.344       .  D
C518        H526   1.086       .  S
C519        H527   1.088       .  S
C519        C520   1.351       .  D
C520        H528   1.085   1_545  S
C529        C537   1.484       .  S
C529        C530   1.402       .  A
C529        C534   1.407       .  A
C530        C531   1.394       .  A
C530        H539   1.084       .  S
C531        C532   1.407       .  A
C531        H540   1.081       .  S
C532        C535   1.488       .  S
C532        C533   1.405       .  A
C533        C534   1.401       .  A
C533        H541   1.083       .  S
C534        H542   1.081       .  S
C535        H543   1.087       .  S
C535        C536   1.347       .  D
C536        H544   1.084       .  S
C537        H545   1.087       .  S
C537        C538   1.347       .  D
C538        H546   1.085       .  S
C547        C555   1.485       .  S
C547        C548   1.402       .  A
C547        C552   1.407       .  A
C548        C549   1.396       .  A
C548        H557   1.083       .  S
C549        C550   1.408       .  A
C549        H558   1.081       .  S
C550        C553   1.488       .  S
C550        C551   1.404       .  A
C551        C552   1.400       .  A
C551        H559   1.083       .  S
C552        H560   1.082       .  S
C553        H561   1.087       .  S
C553        C554   1.346       .  D
C554        H562   1.084       .  S
C555        H563   1.087       .  S
C555        C556   1.347       .  D
C556        H564   1.085       .  S
C565        C573   1.479       .  S
C565        C566   1.402       .  A
C565        C570   1.405       .  A
C566        C567   1.397       .  A
C566        H575   1.083       .  S
C567        C568   1.406       .  A
C567        H576   1.083       .  S
C568        C571   1.482       .  S
C568        C569   1.403       .  A
C569        C570   1.400       .  A
C569        H577   1.083       .  S
C570        H578   1.083       .  S
C571        H579   1.087       .  S
C571        C572   1.343       .  D
C572        H580   1.086       .  S
C573        H581   1.087       .  S
C573        C574   1.343       .  D
C574        H582   1.086       .  S
C583        C591   1.483       .  S
C583        C584   1.403       .  A
C583        C588   1.406       .  A
C584        C585   1.400       .  A
C584        H593   1.083       .  S
C585        C586   1.406       .  A
C585        H594   1.083       .  S
C586        C589   1.483       .  S
C586        C587   1.403       .  A
C587        C588   1.399       .  A
C587        H595   1.083       .  S
C588        H596   1.083       .  S
C589        H597   1.087       .  S
C589        C590   1.345       .  D
C590        H598   1.086       .  S
C591        H599   1.087       .  S
C591        C592   1.343       .  D
C592        H600   1.087       .  S
C601        C609   1.486       .  S
C601        C602   1.404       .  A
C601        C606   1.406       .  A
C602        C603   1.402       .  A
C602        H611   1.083       .  S
C603        C604   1.407       .  A
C603        H612   1.083       .  S
C604        C607   1.486       .  S
C604        C605   1.404       .  A
C605        C606   1.400       .  A
C605        H613   1.083       .  S
C606        H614   1.083       .  S
C607        H615   1.087       .  S
C607        C608   1.347       .  D
C608        H616   1.086       .  S
C609        H617   1.087       .  S
C609        C610   1.345       .  D
C610        H618   1.086       .  S
C619        C627   1.492       .  S
C619        C620   1.404       .  A
C619        C624   1.409   1_545  A
C620        C621   1.397       .  A
C620        H629   1.083       .  S
C621        C622   1.408       .  A
C621        H630   1.081       .  S
C622        C625   1.494       .  S
C622        C623   1.406       .  A
C623        C624   1.403   1_545  A
C623        H631   1.083   1_545  S
C624        H632   1.081       .  S
C625        H633   1.087       .  S
C625        C626   1.348       .  D
C626        H634   1.084       .  S
C627        H635   1.087       .  S
C627        C628   1.349   1_545  D
C628        H636   1.083       .  S
C637        C645   1.484       .  S
C637        C638   1.403       .  A
C637        C642   1.407       .  A
C638        C639   1.398       .  A
C638        H647   1.084       .  S
C639        C640   1.406       .  A
C639        H648   1.083       .  S
C640        C643   1.485       .  S
C640        C641   1.403       .  A
C641        C642   1.402       .  A
C641        H649   1.083       .  S
C642        H650   1.082       .  S
C643        H651   1.087       .  S
C643        C644   1.344       .  D
C644        H652   1.087       .  S
C645        H653   1.087       .  S
C645        C646   1.347       .  D
C646        H654   1.086       .  S
C655        C663   1.493       .  S
C655        C656   1.404       .  A
C655        C660   1.410       .  A
C656        C657   1.401       .  A
C656        H665   1.084       .  S
C657        C658   1.409       .  A
C657        H666   1.081   1_655  S
C658        C661   1.488       .  S
C658        C659   1.401       .  A
C659        C660   1.398       .  A
C659        H667   1.084       .  S
C660        H668   1.080       .  S
C661        H669   1.087       .  S
C661        C662   1.345   1_655  D
C662        H670   1.085       .  S
C663        H671   1.087       .  S
C663        C664   1.346       .  D
C664        H672   1.084       .  S
C673        C681   1.498       .  S
C673        C674   1.405       .  A
C673        C678   1.412       .  A
C674        C675   1.401   1_655  A
C674        H683   1.083   1_655  S
C675        C676   1.409       .  A
C675        H684   1.083       .  S
C676        C679   1.491       .  S
C676        C677   1.402   1_455  A
C677        C678   1.401       .  A
C677        H685   1.083       .  S
C678        H686   1.081       .  S
C679        H687   1.087   1_455  S
C679        C680   1.346       .  D
C680        H688   1.086       .  S
C681        H689   1.086       .  S
C681        C682   1.347       .  D
C682        H690   1.083       .  S
C691        C699   1.491       .  S
C691        C692   1.404       .  A
C691        C696   1.409       .  A
C692        C693   1.399       .  A
C692        H701   1.084   1_455  S
C693        C694   1.408       .  A
C693        H702   1.081       .  S
C694        C697   1.493       .  S
C694        C695   1.404       .  A
C695        C696   1.402       .  A
C695        H703   1.083       .  S
C696        H704   1.081       .  S
C697        H705   1.087       .  S
C697        C698   1.348       .  D
C698        H706   1.085       .  S
C699        H707   1.088   1_455  S
C699        C700   1.350       .  D
C700        H708   1.085       .  S
C709        C717   1.483       .  S
C709        C710   1.405       .  A
C709        C714   1.405       .  A
C710        C711   1.402       .  A
C710        H719   1.084       .  S
C711        C712   1.405       .  A
C711        H720   1.082       .  S
C712        C715   1.479       .  S
C712        C713   1.403       .  A
C713        C714   1.395       .  A
C713        H721   1.084       .  S
C714        H722   1.082       .  S
C715        H723   1.088       .  S
C715        C716   1.346   1_554  D
C716        H724   1.086       .  S
C717        H725   1.087       .  S
C717        C718   1.345       .  D
C718        H726   1.087       .  S
C727        C735   1.488       .  S
C727        C728   1.405       .  A
C727        C732   1.405       .  A
C728        C729   1.397       .  A
C728        H737   1.084       .  S
C729        C730   1.407       .  A
C729        H738   1.079       .  S
C730        C733   1.498       .  S
C730        C731   1.410       .  A
C731        C732   1.406       .  A
C731        H739   1.083       .  S
C732        H740   1.082       .  S
C733        H741   1.087       .  S
C733        C734   1.353       .  D
C734        H742   1.083       .  S
C735        H743   1.088       .  S
C735        C736   1.353       .  D
C736        H744   1.085       .  S
C745        C753   1.492       .  S
C745        C746   1.405       .  A
C745        C750   1.408       .  A
C746        C747   1.400       .  A
C746        H755   1.083       .  S
C747        C748   1.409   1_655  A
C747        H756   1.079       .  S
C748        C751   1.496       .  S
C748        C749   1.406       .  A
C749        C750   1.400   1_455  A
C749        H757   1.083       .  S
C750        H758   1.081       .  S
C751        H759   1.088       .  S
C751        C752   1.349       .  D
C752        H760   1.082       .  S
C753        H761   1.087       .  S
C753        C754   1.350       .  D
C754        H762   1.084       .  S
C763        C771   1.494       .  S
C763        C764   1.405       .  A
C763        C768   1.410       .  A
C764        C765   1.398       .  A
C764        H773   1.084       .  S
C765        C766   1.407       .  A
C765        H774   1.082       .  S
C766        C769   1.490       .  S
C766        C767   1.404       .  A
C767        C768   1.402       .  A
C767        H775   1.083       .  S
C768        H776   1.080       .  S
C769        H777   1.087       .  S
C769        C770   1.346       .  D
C770        H778   1.085       .  S
C771        H779   1.087       .  S
C771        C772   1.350       .  D
C772        H780   1.083       .  S
C781        C789   1.488       .  S
C781        C782   1.402       .  A
C781        C786   1.407       .  A
C782        C783   1.400       .  A
C782        H791   1.084       .  S
C783        C784   1.410       .  A
C783        H792   1.080       .  S
C784        C787   1.491       .  S
C784        C785   1.403       .  A
C785        C786   1.398       .  A
C785        H793   1.084       .  S
C786        H794   1.082       .  S
C787        H795   1.087       .  S
C787        C788   1.346       .  D
C788        H796   1.083       .  S
C789        H797   1.087       .  S
C789        C790   1.345       .  D
C790        H798   1.086       .  S
C799        C807   1.490       .  S
C799        C800   1.403       .  A
C799        C804   1.410       .  A
C800        C801   1.396       .  A
C800        H809   1.084       .  S
C801        C802   1.407       .  A
C801        H810   1.082       .  S
C802        C805   1.489       .  S
C802        C803   1.403       .  A
C803        C804   1.403       .  A
C803        H811   1.083       .  S
C804        H812   1.080       .  S
C805        H813   1.087       .  S
C805        C806   1.345       .  D
C806        H814   1.086       .  S
C807        H815   1.087       .  S
C807        C808   1.348       .  D
C808        H816   1.084       .  S
C817        C825   1.498   1_455  S
C817        C818   1.408       .  A
C817        C822   1.407       .  A
C818        C819   1.403       .  A
C818        H827   1.083   1_455  S
C819        C820   1.408       .  A
C819        H828   1.080       .  S
C820        C823   1.497       .  S
C820        C821   1.407       .  A
C821        C822   1.400       .  A
C821        H829   1.083       .  S
C822        H830   1.080       .  S
C823        H831   1.086       .  S
C823        C824   1.354       .  D
C824        H832   1.083       .  S
C825        H833   1.088       .  S
C825        C826   1.354   1_655  D
C826        H834   1.083       .  S
C835        C843   1.483       .  S
C835        C836   1.403       .  A
C835        C840   1.407       .  A
C836        C837   1.395       .  A
C836        H845   1.084       .  S
C837        C838   1.401       .  A
C837        H846   1.083       .  S
C838        C841   1.482       .  S
C838        C839   1.408       .  A
C839        C840   1.400       .  A
C839        H847   1.082       .  S
C840        H848   1.081       .  S
C841        H849   1.087       .  S
C841        C842   1.345       .  D
C842        H850   1.085   1_565  S
C843        H851   1.087       .  S
C843        C844   1.347       .  D
C844        H852   1.085       .  S
C853        C861   1.483       .  S
C853        C854   1.403       .  A
C853        C858   1.407       .  A
C854        C855   1.397       .  A
C854        H863   1.084       .  S
C855        C856   1.405       .  A
C855        H864   1.083       .  S
C856        C859   1.483       .  S
C856        C857   1.403       .  A
C857        C858   1.402       .  A
C857        H865   1.083       .  S
C858        H866   1.082       .  S
C859        H867   1.087       .  S
C859        C860   1.343       .  D
C860        H868   1.087       .  S
C861        H869   1.087       .  S
C861        C862   1.346       .  D
C862        H870   1.086       .  S
C871        C879   1.486       .  S
C871        C872   1.404       .  A
C871        C876   1.405       .  A
C872        C873   1.403       .  A
C872        H881   1.084       .  S
C873        C874   1.408       .  A
C873        H882   1.082       .  S
C874        C877   1.486       .  S
C874        C875   1.403       .  A
C875        C876   1.397       .  A
C875        H883   1.084       .  S
C876        H884   1.082       .  S
C877        H885   1.087       .  S
C877        C878   1.347       .  D
C878        H886   1.086       .  S
C879        H887   1.087       .  S
C879        C880   1.343       .  D
C880        H888   1.087       .  S
C889        C897   1.487       .  S
C889        C890   1.403       .  A
C889        C894   1.408       .  A
C890        C891   1.399       .  A
C890        H899   1.083       .  S
C891        C892   1.407       .  A
C891        H900   1.081       .  S
C892        C895   1.486       .  S
C892        C893   1.404       .  A
C893        C894   1.398       .  A
C893        H901   1.083       .  S
C894        H902   1.081       .  S
C895        H903   1.087       .  S
C895        C896   1.348       .  D
C896        H904   1.085       .  S
C897        H905   1.087       .  S
C897        C898   1.345       .  D
C898        H906   1.085       .  S
C907        C915   1.497       .  S
C907        C908   1.410       .  A
C907        C912   1.406       .  A
C908        C909   1.409       .  A
C908        H917   1.083       .  S
C909        C910   1.406       .  A
C909        H918   1.082       .  S
C910        C913   1.493       .  S
C910        C911   1.406       .  A
C911        C912   1.398       .  A
C911        H919   1.084       .  S
C912        H920   1.082       .  S
C913        H921   1.088       .  S
C913        C914   1.355       .  D
C914        H922   1.085       .  S
C915        H923   1.087       .  S
C915        C916   1.353       .  D
C916        H924   1.085       .  S
C925        C933   1.486       .  S
C925        C926   1.402       .  A
C925        C930   1.408       .  A
C926        C927   1.396       .  A
C926        H935   1.083       .  S
C927        C928   1.407       .  A
C927        H936   1.082       .  S
C928        C931   1.490       .  S
C928        C929   1.405       .  A
C929        C930   1.404       .  A
C929        H937   1.083       .  S
C930        H938   1.082   1_556  S
C931        H939   1.086       .  S
C931        C932   1.346       .  D
C932        H940   1.085       .  S
C933        H941   1.087       .  S
C933        C934   1.347   1_556  D
C934        H942   1.085       .  S
C943        C951   1.491       .  S
C943        C944   1.405       .  A
C943        C948   1.408       .  A
C944        C945   1.400       .  A
C944        H953   1.083       .  S
C945        C946   1.408       .  A
C945        H954   1.081       .  S
C946        C949   1.489       .  S
C946        C947   1.404       .  A
C947        C948   1.399       .  A
C947        H955   1.084       .  S
C948        H956   1.081       .  S
C949        H957   1.087       .  S
C949        C950   1.349   1_545  D
C950        H958   1.084       .  S
C951        H959   1.087       .  S
C951        C952   1.349       .  D
C952        H960   1.084       .  S
C961        C969   1.492       .  S
C961        C962   1.402       .  A
C961        C966   1.410   1_565  A
C962        C963   1.400       .  A
C962        H971   1.083       .  S
C963        C964   1.412       .  A
C963        H972   1.080       .  S
C964        C967   1.498       .  S
C964        C965   1.404       .  A
C965        C966   1.402   1_565  A
C965        H973   1.083   1_565  S
C966        H974   1.082       .  S
C967        H975   1.086       .  S
C967        C968   1.346       .  D
C968        H976   1.083       .  S
C969        H977   1.088       .  S
C969        C970   1.346   1_565  D
C970        H978   1.085       .  S
C979        C987   1.487       .  S
C979        C980   1.405       .  A
C979        C984   1.405       .  A
C980        C981   1.403       .  A
C980        H989   1.083       .  S
C981        C982   1.407       .  A
C981        H990   1.082   1_554  S
C982        C985   1.484       .  S
C982        C983   1.403       .  A
C983        C984   1.394       .  A
C983        H991   1.083       .  S
C984        H992   1.083       .  S
C985        H993   1.087       .  S
C985        C986   1.348   1_554  D
C986        H994   1.085       .  S
C987        H995   1.086       .  S
C987        C988   1.346       .  D
C988        H996   1.085       .  S
C997       C1005   1.494       .  S
C997        C998   1.406       .  A
C997       C1002   1.408       .  A
C998        C999   1.406       .  A
C998       H1007   1.083       .  S
C999       C1000   1.409       .  A
C999       H1008   1.082   1_556  S
C1000      C1003   1.489       .  S
C1000      C1001   1.403       .  A
C1001      C1002   1.397       .  A
C1001      H1009   1.084       .  S
C1002      H1010   1.082       .  S
C1003      H1011   1.088       .  S
C1003      C1004   1.351       .  D
C1004      H1012   1.085   1_556  S
C1005      H1013   1.087       .  S
C1005      C1006   1.346       .  D
C1006      H1014   1.086       .  S
C1015      C1023   1.492       .  S
C1015      C1016   1.402       .  A
C1015      C1020   1.410   1_655  A
C1016      C1017   1.400   1_655  A
C1016      H1025   1.084       .  S
C1017      C1018   1.406       .  A
C1017      H1026   1.083   1_455  S
C1018      C1021   1.497       .  S
C1018      C1019   1.410       .  A
C1019      C1020   1.403       .  A
C1019      H1027   1.080       .  S
C1020      H1028   1.081       .  S
C1021      H1029   1.087       .  S
C1021      C1022   1.351       .  D
C1022      H1030   1.083       .  S
C1023      H1031   1.087       .  S
C1023      C1024   1.348       .  D
C1024      H1032   1.085   1_655  S
C1033      C1041   1.498   1_545  S
C1033      C1034   1.410       .  A
C1033      C1038   1.404   1_545  A
C1034      C1035   1.409       .  A
C1034      H1043   1.082       .  S
C1035      C1036   1.413       .  A
C1035      H1044   1.081       .  S
C1036      C1039   1.503       .  S
C1036      C1037   1.405   1_545  A
C1037      C1038   1.401       .  A
C1037      H1045   1.083       .  S
C1038      H1046   1.083       .  S
C1039      H1047   1.086       .  S
C1039      C1040   1.351       .  D
C1040      H1048   1.084       .  S
C1041      H1049   1.087       .  S
C1041      C1042   1.353   1_565  D
C1042      H1050   1.085       .  S
C1051      C1059   1.497       .  S
C1051      C1052   1.405       .  A
C1051      C1056   1.409       .  A
C1052      C1053   1.405       .  A
C1052      H1061   1.083       .  S
C1053      C1054   1.410       .  A
C1053      H1062   1.081   1_556  S
C1054      C1057   1.495       .  S
C1054      C1055   1.404       .  A
C1055      C1056   1.400       .  A
C1055      H1063   1.084       .  S
C1056      H1064   1.081       .  S
C1057      H1065   1.087       .  S
C1057      C1058   1.349       .  D
C1058      H1066   1.085   1_556  S
C1059      H1067   1.086       .  S
C1059      C1060   1.348       .  D
C1060      H1068   1.085       .  S
C1069      C1077   1.488       .  S
C1069      C1070   1.404       .  A
C1069      C1074   1.407       .  A
C1070      C1071   1.402       .  A
C1070      H1079   1.084       .  S
C1071      C1072   1.407       .  A
C1071      H1080   1.083       .  S
C1072      C1075   1.487       .  S
C1072      C1073   1.403       .  A
C1073      C1074   1.402       .  A
C1073      H1081   1.083       .  S
C1074      H1082   1.082       .  S
C1075      H1083   1.087       .  S
C1075      C1076   1.345       .  D
C1076      H1084   1.087       .  S
C1077      H1085   1.087       .  S
C1077      C1078   1.346       .  D
C1078      H1086   1.087       .  S
C1087      C1095   1.488       .  S
C1087      C1088   1.404       .  A
C1087      C1092   1.406       .  A
C1088      C1089   1.403       .  A
C1088      H1097   1.083       .  S
C1089      C1090   1.408       .  A
C1089      H1098   1.083       .  S
C1090      C1093   1.490       .  S
C1090      C1091   1.404       .  A
C1091      C1092   1.401       .  A
C1091      H1099   1.083       .  S
C1092      H1100   1.083       .  S
C1093      H1101   1.087       .  S
C1093      C1094   1.347       .  D
C1094      H1102   1.086       .  S
C1095      H1103   1.087       .  S
C1095      C1096   1.345       .  D
C1096      H1104   1.087       .  S
C1105      C1113   1.494       .  S
C1105      C1106   1.404       .  A
C1105      C1110   1.409       .  A
C1106      C1107   1.398       .  A
C1106      H1115   1.084       .  S
C1107      C1108   1.408       .  A
C1107      H1116   1.081       .  S
C1108      C1111   1.497       .  S
C1108      C1109   1.406       .  A
C1109      C1110   1.406       .  A
C1109      H1117   1.083       .  S
C1110      H1118   1.081       .  S
C1111      H1119   1.086       .  S
C1111      C1112   1.349       .  D
C1112      H1120   1.085       .  S
C1113      H1121   1.087       .  S
C1113      C1114   1.351       .  D
C1114      H1122   1.084       .  S
C1123      C1131   1.483       .  S
C1123      C1124   1.401       .  A
C1123      C1128   1.407       .  A
C1124      C1125   1.396       .  A
C1124      H1133   1.083       .  S
C1125      C1126   1.407       .  A
C1125      H1134   1.082       .  S
C1126      C1129   1.490       .  S
C1126      C1127   1.405       .  A
C1127      C1128   1.405       .  A
C1127      H1135   1.083       .  S
C1128      H1136   1.083   1_556  S
C1129      H1137   1.086       .  S
C1129      C1130   1.345       .  D
C1130      H1138   1.086       .  S
C1131      H1139   1.087       .  S
C1131      C1132   1.347       .  D
C1132      H1140   1.086   1_556  S
C1141      C1149   1.499       .  S
C1141      C1142   1.407   1_455  A
C1141      C1146   1.409   1_455  A
C1142      C1143   1.403       .  A
C1142      H1151   1.083   1_655  S
C1143      C1144   1.409       .  A
C1143      H1152   1.080       .  S
C1144      C1147   1.495       .  S
C1144      C1145   1.404       .  A
C1145      C1146   1.399       .  A
C1145      H1153   1.083       .  S
C1146      H1154   1.080       .  S
C1147      H1155   1.087       .  S
C1147      C1148   1.349       .  D
C1148      H1156   1.083       .  S
C1149      H1157   1.087       .  S
C1149      C1150   1.350       .  D
C1150      H1158   1.083   1_455  S
C1159      C1167   1.478       .  S
C1159      C1160   1.402       .  A
C1159      C1164   1.404       .  A
C1160      C1161   1.399       .  A
C1160      H1169   1.084       .  S
C1161      C1162   1.406       .  A
C1161      H1170   1.082       .  S
C1162      C1165   1.482       .  S
C1162      C1163   1.403       .  A
C1163      C1164   1.398       .  A
C1163      H1171   1.084       .  S
C1164      H1172   1.083       .  S
C1165      H1173   1.087       .  S
C1165      C1166   1.345       .  D
C1166      H1174   1.086       .  S
C1167      H1175   1.087       .  S
C1167      C1168   1.344       .  D
C1168      H1176   1.087       .  S
C1177      C1185   1.482       .  S
C1177      C1178   1.403       .  A
C1177      C1182   1.406       .  A
C1178      C1179   1.397       .  A
C1178      H1187   1.084       .  S
C1179      C1180   1.405       .  A
C1179      H1188   1.083       .  S
C1180      C1183   1.483       .  S
C1180      C1181   1.404       .  A
C1181      C1182   1.401       .  A
C1181      H1189   1.083       .  S
C1182      H1190   1.082       .  S
C1183      H1191   1.087       .  S
C1183      C1184   1.344       .  D
C1184      H1192   1.087       .  S
C1185      H1193   1.087       .  S
C1185      C1186   1.347       .  D
C1186      H1194   1.086       .  S
C1195      C1203   1.493       .  S
C1195      C1196   1.405   1_545  A
C1195      C1200   1.409   1_545  A
C1196      C1197   1.402       .  A
C1196      H1205   1.082       .  S
C1197      C1198   1.407       .  A
C1197      H1206   1.082       .  S
C1198      C1201   1.485       .  S
C1198      C1199   1.402       .  A
C1199      C1200   1.396       .  A
C1199      H1207   1.084       .  S
C1200      H1208   1.080   1_565  S
C1201      H1209   1.087       .  S
C1201      C1202   1.346       .  D
C1202      H1210   1.086       .  S
C1203      H1211   1.088       .  S
C1203      C1204   1.346       .  D
C1204      H1212   1.083       .  S
C1213      C1221   1.490       .  S
C1213      C1214   1.403       .  A
C1213      C1218   1.410       .  A
C1214      C1215   1.396       .  A
C1214      H1223   1.083       .  S
C1215      C1216   1.407       .  A
C1215      H1224   1.082       .  S
C1216      C1219   1.489       .  S
C1216      C1217   1.404       .  A
C1217      C1218   1.401       .  A
C1217      H1225   1.083       .  S
C1218      H1226   1.081       .  S
C1219      H1227   1.086       .  S
C1219      C1220   1.346       .  D
C1220      H1228   1.084       .  S
C1221      H1229   1.087       .  S
C1221      C1222   1.346       .  D
C1222      H1230   1.084       .  S
C1231      C1239   1.490       .  S
C1231      C1232   1.407       .  A
C1231      C1236   1.406       .  A
C1232      C1233   1.405       .  A
C1232      H1241   1.083       .  S
C1233      C1234   1.406       .  A
C1233      H1242   1.082       .  S
C1234      C1237   1.484       .  S
C1234      C1235   1.403       .  A
C1235      C1236   1.393       .  A
C1235      H1243   1.084       .  S
C1236      H1244   1.081       .  S
C1237      H1245   1.088       .  S
C1237      C1238   1.351       .  D
C1238      H1246   1.085       .  S
C1239      H1247   1.086       .  S
C1239      C1240   1.348       .  D
C1240      H1248   1.085       .  S
C1249      C1257   1.492       .  S
C1249      C1250   1.407       .  A
C1249      C1254   1.405       .  A
C1250      C1251   1.402       .  A
C1250      H1259   1.083       .  S
C1251      C1252   1.407       .  A
C1251      H1260   1.080       .  S
C1252      C1255   1.493       .  S
C1252      C1253   1.407       .  A
C1253      C1254   1.400       .  A
C1253      H1261   1.084       .  S
C1254      H1262   1.081       .  S
C1255      H1263   1.088       .  S
C1255      C1256   1.354       .  D
C1256      H1264   1.084       .  S
C1257      H1265   1.087       .  S
C1257      C1258   1.352       .  D
C1258      H1266   1.085       .  S
C1267      C1275   1.497       .  S
C1267      C1268   1.405       .  A
C1267      C1272   1.409       .  A
C1268      C1269   1.404       .  A
C1268      H1277   1.083       .  S
C1269      C1270   1.411       .  A
C1269      H1278   1.080       .  S
C1270      C1273   1.494       .  S
C1270      C1271   1.403       .  A
C1271      C1272   1.398       .  A
C1271      H1279   1.083       .  S
C1272      H1280   1.081       .  S
C1273      H1281   1.087       .  S
C1273      C1274   1.348       .  D
C1274      H1282   1.084       .  S
C1275      H1283   1.086       .  S
C1275      C1276   1.348       .  D
C1276      H1284   1.084       .  S
C1285      C1293   1.492       .  S
C1285      C1286   1.406       .  A
C1285      C1290   1.406       .  A
C1286      C1287   1.401       .  A
C1286      H1295   1.084       .  S
C1287      C1288   1.408       .  A
C1287      H1296   1.080       .  S
C1288      C1291   1.493       .  S
C1288      C1289   1.406       .  A
C1289      C1290   1.399       .  A
C1289      H1297   1.083       .  S
C1290      H1298   1.081       .  S
C1291      H1299   1.088       .  S
C1291      C1292   1.350       .  D
C1292      H1300   1.084       .  S
C1293      H1301   1.087       .  S
C1293      C1294   1.351       .  D
C1294      H1302   1.084       .  S
C1303      C1311   1.497       .  S
C1303      C1304   1.405       .  A
C1303      C1308   1.410       .  A
C1304      C1305   1.400       .  A
C1304      H1313   1.083       .  S
C1305      C1306   1.408       .  A
C1305      H1314   1.081       .  S
C1306      C1309   1.499       .  S
C1306      C1307   1.406       .  A
C1307      C1308   1.406       .  A
C1307      H1315   1.083       .  S
C1308      H1316   1.081       .  S
C1309      H1317   1.087       .  S
C1309      C1310   1.349       .  D
C1310      H1318   1.085       .  S
C1311      H1319   1.087       .  S
C1311      C1312   1.352       .  D
C1312      H1320   1.084       .  S
C1321      C1329   1.488       .  S
C1321      C1322   1.406       .  A
C1321      C1326   1.408       .  A
C1322      C1323   1.396       .  A
C1322      H1331   1.083       .  S
C1323      C1324   1.399       .  A
C1323      H1332   1.084       .  S
C1324      C1327   1.481       .  S
C1324      C1325   1.408       .  A
C1325      C1326   1.401       .  A
C1325      H1333   1.082       .  S
C1326      H1334   1.080       .  S
C1327      H1335   1.088       .  S
C1327      C1328   1.343       .  D
C1328      H1336   1.086       .  S
C1329      H1337   1.087       .  S
C1329      C1330   1.351       .  D
C1330      H1338   1.083       .  S
C1339      C1347   1.488       .  S
C1339      C1340   1.403       .  A
C1339      C1344   1.408       .  A
C1340      C1341   1.400       .  A
C1340      H1349   1.083       .  S
C1341      C1342   1.410       .  A
C1341      H1350   1.081       .  S
C1342      C1345   1.490       .  S
C1342      C1343   1.403       .  A
C1343      C1344   1.399       .  A
C1343      H1351   1.083       .  S
C1344      H1352   1.082       .  S
C1345      H1353   1.087       .  S
C1345      C1346   1.346       .  D
C1346      H1354   1.084       .  S
C1347      H1355   1.087       .  S
C1347      C1348   1.347       .  D
C1348      H1356   1.085       .  S
C1357      C1365   1.500       .  S
C1357      C1358   1.406       .  A
C1357      C1362   1.409       .  A
C1358      C1359   1.402       .  A
C1358      H1367   1.083       .  S
C1359      C1360   1.410       .  A
C1359      H1368   1.080       .  S
C1360      C1363   1.505       .  S
C1360      C1361   1.409       .  A
C1361      C1362   1.406       .  A
C1361      H1369   1.084       .  S
C1362      H1370   1.081       .  S
C1363      H1371   1.088       .  S
C1363      C1364   1.353       .  D
C1364      H1372   1.083       .  S
C1365      H1373   1.087       .  S
C1365      C1366   1.353       .  D
C1366      H1374   1.084       .  S
C1375      C1383   1.495       .  S
C1375      C1376   1.405       .  A
C1375      C1380   1.409       .  A
C1376      C1377   1.400       .  A
C1376      H1385   1.084       .  S
C1377      C1378   1.410       .  A
C1377      H1386   1.079       .  S
C1378      C1381   1.495       .  S
C1378      C1379   1.404       .  A
C1379      C1380   1.399       .  A
C1379      H1387   1.084       .  S
C1380      H1388   1.079       .  S
C1381      H1389   1.087       .  S
C1381      C1382   1.348       .  D
C1382      H1390   1.082       .  S
C1383      H1391   1.088       .  S
C1383      C1384   1.349       .  D
C1384      H1392   1.083       .  S
C1393      C1401   1.500       .  S
C1393      C1394   1.407       .  A
C1393      C1398   1.409       .  A
C1394      C1395   1.404       .  A
C1394      H1403   1.083       .  S
C1395      C1396   1.409       .  A
C1395      H1404   1.080       .  S
C1396      C1399   1.499       .  S
C1396      C1397   1.406       .  A
C1397      C1398   1.401       .  A
C1397      H1405   1.083       .  S
C1398      H1406   1.080       .  S
C1399      H1407   1.087       .  S
C1399      C1400   1.353       .  D
C1400      H1408   1.083       .  S
C1401      H1409   1.088       .  S
C1401      C1402   1.351       .  D
C1402      H1410   1.083       .  S
C1411      C1419   1.504       .  S
C1411      C1412   1.407       .  A
C1411      C1416   1.413       .  A
C1412      C1413   1.405       .  A
C1412      H1421   1.083       .  S
C1413      C1414   1.410       .  A
C1413      H1422   1.081       .  S
C1414      C1417   1.496       .  S
C1414      C1415   1.402       .  A
C1415      C1416   1.401       .  A
C1415      H1423   1.084       .  S
C1416      H1424   1.078       .  S
C1417      H1425   1.087       .  S
C1417      C1418   1.348       .  D
C1418      H1426   1.085       .  S
C1419      H1427   1.086       .  S
C1419      C1420   1.349       .  D
C1420      H1428   1.081       .  S
C1429      C1437   1.492       .  S
C1429      C1430   1.406       .  A
C1429      C1434   1.407       .  A
C1430      C1431   1.400       .  A
C1430      H1439   1.083       .  S
C1431      C1432   1.408       .  A
C1431      H1440   1.080       .  S
C1432      C1435   1.491       .  S
C1432      C1433   1.405       .  A
C1433      C1434   1.397       .  A
C1433      H1441   1.084       .  S
C1434      H1442   1.080       .  S
C1435      H1443   1.087       .  S
C1435      C1436   1.350       .  D
C1436      H1444   1.083       .  S
C1437      H1445   1.088       .  S
C1437      C1438   1.350       .  D
C1438      H1446   1.083       .  S
C1447      C1455   1.494       .  S
C1447      C1448   1.406       .  A
C1447      C1452   1.410       .  A
C1448      C1449   1.399       .  A
C1448      H1457   1.083       .  S
C1449      C1450   1.406       .  A
C1449      H1458   1.082       .  S
C1450      C1453   1.491       .  S
C1450      C1451   1.405       .  A
C1451      C1452   1.402       .  A
C1451      H1459   1.083       .  S
C1452      H1460   1.080       .  S
C1453      H1461   1.087       .  S
C1453      C1454   1.347       .  D
C1454      H1462   1.084       .  S
C1455      H1463   1.086       .  S
C1455      C1456   1.350       .  D
C1456      H1464   1.082       .  S
C1465      C1473   1.493       .  S
C1465      C1466   1.405       .  A
C1465      C1470   1.410       .  A
C1466      C1467   1.398       .  A
C1466      H1475   1.084       .  S
C1467      C1468   1.406       .  A
C1467      H1476   1.082       .  S
C1468      C1471   1.491       .  S
C1468      C1469   1.405       .  A
C1469      C1470   1.404       .  A
C1469      H1477   1.083       .  S
C1470      H1478   1.081       .  S
C1471      H1479   1.086       .  S
C1471      C1472   1.347       .  D
C1472      H1480   1.086       .  S
C1473      H1481   1.087       .  S
C1473      C1474   1.349       .  D
C1474      H1482   1.084       .  S
C1483      C1491   1.485       .  S
C1483      C1484   1.404       .  A
C1483      C1488   1.406       .  A
C1484      C1485   1.403       .  A
C1484      H1493   1.083       .  S
C1485      C1486   1.407       .  A
C1485      H1494   1.083       .  S
C1486      C1489   1.481       .  S
C1486      C1487   1.402       .  A
C1487      C1488   1.395       .  A
C1487      H1495   1.083       .  S
C1488      H1496   1.083       .  S
C1489      H1497   1.087       .  S
C1489      C1490   1.348       .  D
C1490      H1498   1.085       .  S
C1491      H1499   1.086       .  S
C1491      C1492   1.343       .  D
C1492      H1500   1.087       .  S
C1501      C1509   1.484       .  S
C1501      C1502   1.405       .  A
C1501      C1506   1.403       .  A
C1502      C1503   1.405       .  A
C1502      H1511   1.083       .  S
C1503      C1504   1.408       .  A
C1503      H1512   1.081       .  S
C1504      C1507   1.487       .  S
C1504      C1505   1.404       .  A
C1505      C1506   1.392       .  A
C1505      H1513   1.083       .  S
C1506      H1514   1.083       .  S
C1507      H1515   1.087       .  S
C1507      C1508   1.352       .  D
C1508      H1516   1.084       .  S
C1509      H1517   1.086       .  S
C1509      C1510   1.345       .  D
C1510      H1518   1.087       .  S
C1519      C1527   1.499       .  S
C1519      C1520   1.408       .  A
C1519      C1524   1.408       .  A
C1520      C1521   1.403       .  A
C1520      H1529   1.083       .  S
C1521      C1522   1.407       .  A
C1521      H1530   1.081       .  S
C1522      C1525   1.498       .  S
C1522      C1523   1.408       .  A
C1523      C1524   1.405       .  A
C1523      H1531   1.084   1_545  S
C1524      H1532   1.081       .  S
C1525      H1533   1.087       .  S
C1525      C1526   1.354       .  D
C1526      H1534   1.084       .  S
C1527      H1535   1.087       .  S
C1527      C1528   1.355       .  D
C1528      H1536   1.084       .  S
C1537      C1545   1.481       .  S
C1537      C1538   1.402       .  A
C1537      C1542   1.406       .  A
C1538      C1539   1.398       .  A
C1538      H1547   1.083       .  S
C1539      C1540   1.403       .  A
C1539      H1548   1.083       .  S
C1540      C1543   1.485       .  S
C1540      C1541   1.407       .  A
C1541      C1542   1.401       .  A
C1541      H1549   1.082       .  S
C1542      H1550   1.083       .  S
C1543      H1551   1.087       .  S
C1543      C1544   1.347       .  D
C1544      H1552   1.086       .  S
C1545      H1553   1.088       .  S
C1545      C1546   1.346       .  D
C1546      H1554   1.086       .  S
C1555      C1563   1.494       .  S
C1555      C1556   1.405       .  A
C1555      C1560   1.408       .  A
C1556      C1557   1.401       .  A
C1556      H1565   1.084       .  S
C1557      C1558   1.409       .  A
C1557      H1566   1.080       .  S
C1558      C1561   1.495       .  S
C1558      C1559   1.405       .  A
C1559      C1560   1.399       .  A
C1559      H1567   1.084       .  S
C1560      H1568   1.080       .  S
C1561      H1569   1.088       .  S
C1561      C1562   1.350       .  D
C1562      H1570   1.083       .  S
C1563      H1571   1.087       .  S
C1563      C1564   1.349       .  D
C1564      H1572   1.084       .  S
C1573      C1581   1.492       .  S
C1573      C1574   1.409       .  A
C1573      C1578   1.404       .  A
C1574      C1575   1.402       .  A
C1574      H1583   1.081       .  S
C1575      C1576   1.411       .  A
C1575      H1584   1.080       .  S
C1576      C1579   1.493       .  S
C1576      C1577   1.403       .  A
C1577      C1578   1.397       .  A
C1577      H1585   1.083       .  S
C1578      H1586   1.084       .  S
C1579      H1587   1.087       .  S
C1579      C1580   1.347       .  D
C1580      H1588   1.083       .  S
C1581      H1589   1.088       .  S
C1581      C1582   1.348       .  D
C1582      H1590   1.084       .  S
C1591      C1599   1.496       .  S
C1591      C1592   1.405       .  A
C1591      C1596   1.411       .  A
C1592      C1593   1.400       .  A
C1592      H1601   1.083       .  S
C1593      C1594   1.408       .  A
C1593      H1602   1.081       .  S
C1594      C1597   1.492       .  S
C1594      C1595   1.404       .  A
C1595      C1596   1.400       .  A
C1595      H1603   1.084       .  S
C1596      H1604   1.079       .  S
C1597      H1605   1.088       .  S
C1597      C1598   1.346       .  D
C1598      H1606   1.084       .  S
C1599      H1607   1.086       .  S
C1599      C1600   1.349       .  D
C1600      H1608   1.081       .  S
C1609      C1617   1.492       .  S
C1609      C1610   1.407       .  A
C1609      C1614   1.406       .  A
C1610      C1611   1.403       .  A
C1610      H1619   1.083       .  S
C1611      C1612   1.406       .  A
C1611      H1620   1.083       .  S
C1612      C1615   1.490       .  S
C1612      C1613   1.406       .  A
C1613      C1614   1.402       .  A
C1613      H1621   1.083       .  S
C1614      H1622   1.082       .  S
C1615      H1623   1.087       .  S
C1615      C1616   1.351       .  D
C1616      H1624   1.086       .  S
C1617      H1625   1.088       .  S
C1617      C1618   1.350       .  D
C1618      H1626   1.085       .  S
C1627      C1635   1.492       .  S
C1627      C1628   1.405       .  A
C1627      C1632   1.408       .  A
C1628      C1629   1.398       .  A
C1628      H1637   1.084       .  S
C1629      C1630   1.408       .  A
C1629      H1638   1.080       .  S
C1630      C1633   1.495       .  S
C1630      C1631   1.407       .  A
C1631      C1632   1.403       .  A
C1631      H1639   1.084       .  S
C1632      H1640   1.081       .  S
C1633      H1641   1.088       .  S
C1633      C1634   1.349       .  D
C1634      H1642   1.083       .  S
C1635      H1643   1.087       .  S
C1635      C1636   1.352       .  D
C1636      H1644   1.084       .  S
C1645      C1653   1.494       .  S
C1645      C1646   1.405       .  A
C1645      C1650   1.409       .  A
C1646      C1647   1.400       .  A
C1646      H1655   1.084       .  S
C1647      C1648   1.409       .  A
C1647      H1656   1.080       .  S
C1648      C1651   1.494       .  S
C1648      C1649   1.405       .  A
C1649      C1650   1.400       .  A
C1649      H1657   1.084       .  S
C1650      H1658   1.080       .  S
C1651      H1659   1.088       .  S
C1651      C1652   1.350       .  D
C1652      H1660   1.083       .  S
C1653      H1661   1.087       .  S
C1653      C1654   1.349       .  D
C1654      H1662   1.083       .  S
