geometry optimzed in LAMMPS
_audit_creation_date              2020-11-30 
_audit_creation_method            'lammps2cif' 
_symmetry_space_group_name_H-M    'P1' 
_symmetry_Int_Tables_number       1 
_symmetry_cell_setting            triclinic 
loop_ 
_symmetry_equiv_pos_as_xyz 
  x,y,z 
_cell_length_a                    34.18715695 
_cell_length_b                    34.08620901162252 
_cell_length_c                    34.14599708728115 
_cell_angle_alpha                 89.49219773806769 
_cell_angle_beta                  89.20294558268165 
_cell_angle_gamma                 90.48785874922056 
loop_ 
_atom_site_label 
_atom_site_type_symbol 
_atom_site_fract_x 
_atom_site_fract_y 
_atom_site_fract_z 
_atom_site_charge 
O1          O  0.60639456  0.98608528  0.45181849    -0.81100
O2          O  0.45174159  0.95575606  0.50749856    -0.81100
O3          O  0.52500765  0.93971833  0.54505183    -0.81100
O4          O  0.49965904  0.94684905  0.44271133    -0.81100
O5          O  0.48547138  0.97646622  0.57627854    -0.81200
O6          O  0.53985009  0.98277754  0.40639241    -0.81100
O7          O  0.42415637  0.97494547  0.45328420    -0.81100
O8          O  0.58876409  0.94255722  0.49741348    -0.81100
C9          C  0.60873874  0.95235277  0.46725287     1.08600
C10         C  0.42257607  0.95396210  0.48446851     1.08500
C11         C  0.50796357  0.94671792  0.57665849     1.08600
C12         C  0.51647190  0.95282980  0.41028511     1.08500
O13         O  0.52203984  0.06212437  0.44092582    -0.81100
O14         O  0.50177974  0.05476576  0.54360142    -0.81200
O15         O  0.60793188  0.01822010  0.52732658    -0.81100
O16         O  0.45191018  0.04520021  0.48169064    -0.81100
O17         O  0.42576385  0.02575854  0.53741185    -0.81100
O18         O  0.58752710  0.06125275  0.48345098    -0.81100
O19         O  0.48272080  0.02512338  0.41057472    -0.81000
O20         O  0.54346009  0.01944118  0.57697714    -0.81100
Co21       Co  0.56206419  0.02266249  0.44788783     1.51500
Co22       Co  0.47816852  0.00689838  0.52370213     1.51700
Co23       Co  0.56420805  0.98031667  0.53444801     1.51600
Co24       Co  0.47712142  0.99442577  0.46375454     1.51500
O25         O  0.52870025  0.00084682  0.49222221    -1.43000
C26         C  0.50482589  0.05552858  0.40983765     1.08500
C27         C  0.51989490  0.04882478  0.57483009     1.08600
C28         C  0.60851927  0.05233059  0.51249828     1.08600
C29         C  0.42333010  0.04643904  0.50616810     1.08500
O30         O  0.93676674  0.54957382  0.51521053    -0.81100
O31         O  0.93845173  0.44666685  0.50336126    -0.81100
O32         O  0.97672122  0.53445574  0.41257821    -0.81100
O33         O  0.95073853  0.48779952  0.56990172    -0.81100
O34         O  0.93505011  0.48993530  0.43624765    -0.81200
O35         O  0.96157998  0.54709897  0.59202393    -0.81100
O36         O  0.97797877  0.41887717  0.54206484    -0.81100
O37         O  0.97338025  0.58495096  0.47494376    -0.81100
C38         C  0.94293623  0.58164083  0.49766962     1.08600
C39         C  0.94767151  0.41606597  0.52099914     1.08500
C40         C  0.94275194  0.51924819  0.41403037     1.08600
C41         C  0.94326796  0.51438131  0.59501699     1.08500
O42         O  0.03525441  0.52191566  0.56945842    -0.81100
O43         O  0.01088308  0.46197980  0.41434921    -0.81200
O44         O  0.05310902  0.55550237  0.49512529    -0.81100
O45         O  0.05263719  0.45548262  0.52305271    -0.81100
O46         O  0.01927279  0.41814338  0.48245787    -0.81100
O47         O  0.01310223  0.58544971  0.53342572    -0.81100
O48         O  0.02288550  0.46591756  0.59881752    -0.81000
O49         O  0.05378270  0.50710085  0.43178289    -0.81100
Co50       Co  0.98409409  0.53265484  0.54135445     1.51500
Co51       Co  0.97592405  0.45612460  0.46087195     1.51700
Co52       Co  0.01423429  0.54348632  0.45559484     1.51600
Co53       Co  0.00363634  0.47407588  0.54535540     1.51500
O54         O  0.99544302  0.50107071  0.49268640    -1.43000
C55         C  0.04056903  0.49906900  0.59862609     1.08500
C56         C  0.04475075  0.47702501  0.41197256     1.08600
C57         C  0.04471687  0.58610404  0.51312524     1.08600
C58         C  0.04881079  0.42333996  0.50543698     1.08500
O59         O  0.45806868  0.50612495  0.06460818    -0.81100
O60         O  0.55676902  0.49615593  0.06368919    -0.81100
O61         O  0.47565936  0.40328852  0.02364068    -0.81100
O62         O  0.51725838  0.56189963  0.05051747    -0.81100
O63         O  0.51718099  0.42779941  0.06609570    -0.81200
O64         O  0.45882412  0.58440403  0.03954319    -0.81100
O65         O  0.58680223  0.53598478  0.02545705    -0.81100
O66         O  0.42403406  0.46467238  0.02952162    -0.81100
C67         C  0.42715699  0.48663576  0.06000766     1.08600
C68         C  0.58769741  0.51415211  0.05600697     1.08500
C69         C  0.49071339  0.40337413  0.05723931     1.08600
C70         C  0.49148003  0.58787592  0.05705258     1.08500
O71         O  0.48459916  0.56308043  0.96540894    -0.81100
O72         O  0.54808618  0.40920934  0.98993819    -0.81200
O73         O  0.45268608  0.48790380  0.94894166    -0.81100
O74         O  0.55378182  0.51854524  0.94902922    -0.81100
O75         O  0.58993392  0.47799903  0.98377513    -0.81100
O76         O  0.42077857  0.52394105  0.98914672    -0.81100
O77         O  0.53933990  0.59348509  0.97840771    -0.81000
O78         O  0.50246048  0.42552752  0.94748864    -0.81100
Co79       Co  0.47368360  0.53362677  0.01674136     1.51500
Co80       Co  0.55102469  0.45452521  0.02584716     1.51700
Co81       Co  0.46552969  0.44760138  0.98734832     1.51600
Co82       Co  0.53286753  0.53912283  0.99776734     1.51500
O83         O  0.50650671  0.48566483  0.00544526    -1.43000
C84         C  0.50650200  0.59335131  0.96085871     1.08500
C85         C  0.53257799  0.40599524  0.95663579     1.08600
C86         C  0.42106004  0.50373289  0.95777623     1.08600
C87         C  0.58585649  0.50137313  0.95402932     1.08500
C88         C  0.61123490  0.91694367  0.77793570     0.79300
N89         N  0.63550448  0.88547323  0.78178462    -0.79000
C90         C  0.64103539  0.85967381  0.75154857     0.81700
N91         N  0.62032905  0.86511931  0.71748276    -0.79000
C92         C  0.59474529  0.89605107  0.71420982     0.81800
N93         N  0.59132626  0.92127785  0.74437516    -0.80700
C94         C  0.71996552  0.77453816  0.73988838     0.79300
N95         N  0.75074927  0.76830080  0.71452046    -0.79000
C96         C  0.77639415  0.73815766  0.72027730     0.81700
N97         N  0.77067841  0.71379007  0.75201044    -0.79000
C98         C  0.74029172  0.71918819  0.77792754     0.81800
N99         N  0.71497072  0.74959904  0.77141113    -0.80700
C100        C  0.89376978  0.71517278  0.58905543     0.79300
N101        N  0.92039764  0.74472244  0.58631168    -0.79000
C102        C  0.91814651  0.77718693  0.60855385     0.81700
N103        N  0.88751375  0.78050008  0.63445781    -0.79000
C104        C  0.86051962  0.75073401  0.63927253     0.81800
N105        N  0.86377115  0.71783151  0.61624962    -0.80700
C106        C  0.78565089  0.60510987  0.91528747     0.79300
N107        N  0.75202460  0.58469806  0.92049130    -0.79000
C108        C  0.72052328  0.59009912  0.89762404     0.81700
N109        N  0.72239288  0.61817083  0.86841758    -0.79000
C110        C  0.75635031  0.63955088  0.86219097     0.81800
N111        N  0.78798959  0.63215886  0.88547293    -0.80700
C112        C  0.29195095  0.21774115  0.75468965     0.79300
N113        N  0.26619300  0.21606683  0.72437223    -0.79000
C114        C  0.23664733  0.24275253  0.72093069     0.81700
N115        N  0.23272030  0.27104682  0.74880171    -0.79000
C116        C  0.25808189  0.27352837  0.77936260     0.81800
N117        N  0.28742383  0.24652771  0.78219506    -0.80700
C118        C  0.29583081  0.40674400  0.89950341     0.79300
N119        N  0.30119827  0.37954658  0.87062633    -0.79000
C120        C  0.27212993  0.35296717  0.86202814     0.81700
N121        N  0.23761199  0.35385209  0.88307786    -0.79000
C122        C  0.23290052  0.38025331  0.91277578     0.81800
N123        N  0.26194121  0.40611598  0.92015398    -0.80700
C124        C  0.39900054  0.08125012  0.76754243     0.79300
N125        N  0.42471852  0.07701409  0.73741307    -0.79000
C126        C  0.42484641  0.10090581  0.70561638     0.81700
N127        N  0.39739891  0.12989949  0.70364473    -0.79000
C128        C  0.37124378  0.13566246  0.73397213     0.81800
N129        N  0.37242776  0.11120600  0.76615912    -0.80700
C130        C  0.10898411  0.22575580  0.60827269     0.79300
N131        N  0.13784615  0.22884057  0.63542800    -0.79000
C132        C  0.15603144  0.26419326  0.64159780     0.81700
N133        N  0.14535050  0.29623207  0.61947980    -0.79000
C134        C  0.11736288  0.29287570  0.59122908     0.81800
N135        N  0.09941930  0.25768174  0.58664193    -0.80700
O136        O  0.45261215  0.01528332  0.92877910    -0.81100
O137        O  0.47586577  0.95932286  0.08632528    -0.81100
O138        O  0.43407249  0.94978856  0.97972731    -0.81100
O139        O  0.43581158  0.05052363  0.00125399    -0.81100
O140        O  0.46826891  0.91380868  0.02097000    -0.81200
O141        O  0.47669547  0.08048844  0.96315808    -0.81100
O142        O  0.43306024  0.00331794  0.06668697    -0.81100
O143        O  0.46314616  0.95783985  0.90294532    -0.81100
C144        C  0.44702267  0.99143966  0.90075257     1.08600
C145        C  0.44219791  0.97437296  0.08836789     1.08500
C146        C  0.43839930  0.91809625  0.99843399     1.08600
C147        C  0.44536507  0.08162933  0.98399268     1.08500
O148        O  0.55142668  0.04325283  0.98229203    -0.81100
O149        O  0.54903648  0.94227501  0.99862803    -0.81200
O150        O  0.53579693  0.98018690  0.93012171    -0.81100
O151        O  0.50959483  0.03062245  0.08614675    -0.81100
O152        O  0.55209259  0.98766559  0.06341439    -0.81100
O153        O  0.52732199  0.03863695  0.90481686    -0.81100
O154        O  0.51605273  0.07949054  0.02199771    -0.81000
O155        O  0.50871459  0.91334669  0.96116596    -0.81100
Co156      Co  0.50387141  0.02665685  0.95657346     1.51500
Co157      Co  0.51135568  0.95263823  0.04048517     1.51700
Co158      Co  0.48286037  0.96778574  0.95571267     1.51600
Co159      Co  0.47346235  0.03909694  0.04203561     1.51500
O160        O  0.49207281  0.99626520  0.00668206    -1.43000
C161        C  0.54663719  0.07519624  0.99978580     1.08500
C162        C  0.53973171  0.91159025  0.98136478     1.08600
C163        C  0.54423459  0.00534243  0.90339578     1.08600
C164        C  0.54374729  0.01661100  0.08504574     1.08500
C165        C  0.28490896  0.76517148  0.77558158     0.79300
N166        N  0.25881218  0.73483345  0.78027318    -0.79000
C167        C  0.22898441  0.72913718  0.75462833     0.81700
N168        N  0.22510906  0.75483764  0.72391420    -0.79000
C169        C  0.25067631  0.78568658  0.71835365     0.81800
N170        N  0.28038845  0.79072585  0.74460062    -0.80700
C171        C  0.38933697  0.78295154  0.91317865     0.79300
N172        N  0.41389586  0.75271713  0.91949182    -0.79000
C173        C  0.41366374  0.72008269  0.89743281     0.81700
N174        N  0.38703278  0.71737879  0.86790643    -0.79000
C175        C  0.36222520  0.74793522  0.85979771     0.81800
N176        N  0.36366297  0.78091229  0.88267107    -0.80700
C177        C  0.22796052  0.91420029  0.59934213     0.79300
N178        N  0.25810665  0.91848099  0.57344682    -0.79000
C179        C  0.29140634  0.89763371  0.57633865     0.81700
N180        N  0.29494544  0.87180583  0.60697165    -0.79000
C181        C  0.26486023  0.86585892  0.63347622     0.81800
N182        N  0.23107556  0.88721968  0.62937283    -0.80700
C183        C  0.10028875  0.61505909  0.78468837     0.79300
N184        N  0.09206810  0.59017311  0.75528449    -0.79000
C185        C  0.11058193  0.59208606  0.72019534     0.81700
N186        N  0.13833778  0.62079367  0.71406627    -0.79000
C187        C  0.14813255  0.64619584  0.74351620     0.81800
N188        N  0.12900405  0.64296793  0.77912613    -0.80700
C189        C  0.75818761  0.28573015  0.23175641     0.79300
N190        N  0.72645854  0.26056065  0.23365530    -0.79000
C191        C  0.72407748  0.23191979  0.26228030     0.81700
N192        N  0.75367640  0.22866389  0.28833747    -0.79000
C193        C  0.78517491  0.25323660  0.28715358     0.81800
N194        N  0.78733448  0.28157987  0.25866116    -0.80700
C195        C  0.91721488  0.22720689  0.39204670     0.79300
N196        N  0.88821848  0.23275221  0.36541234    -0.79000
C197        C  0.86696936  0.26662333  0.36558717     0.81700
N198        N  0.87444487  0.29423194  0.39343626    -0.79000
C199        C  0.90262816  0.28841651  0.42088386     0.81800
N200        N  0.92394198  0.25509695  0.41939598    -0.80700
C201        C  0.77952009  0.39528368  0.09695959     0.79300
N202        N  0.74986844  0.42040803  0.09034887    -0.79000
C203        C  0.71598715  0.41894970  0.11105381     0.81700
N204        N  0.71141542  0.39063990  0.13956067    -0.79000
C205        C  0.74108233  0.36496085  0.14772101     0.81800
N206        N  0.77535605  0.36761123  0.12622497    -0.80700
C207        C  0.61152027  0.10180269  0.20807791     0.79300
N208        N  0.63541565  0.13388932  0.20736661    -0.79000
C209        C  0.63993275  0.15625768  0.23994411     0.81700
N210        N  0.61857446  0.14687295  0.27336320    -0.79000
C211        C  0.59306044  0.11530838  0.27358807     0.81800
N212        N  0.59060040  0.09313197  0.24096754    -0.80700
O213        O  0.94963516  0.54571602  0.97969150    -0.81100
O214        O  0.06965628  0.53995749  0.04083640    -0.81100
O215        O  0.97743826  0.53842879  0.06674168    -0.81100
O216        O  0.04302278  0.55119685  0.95161941    -0.81100
O217        O  0.02490891  0.51282562  0.09793937    -0.81200
O218        O  0.99386554  0.53093091  0.91878365    -0.81100
O219        O  0.10213693  0.52099267  0.99063981    -0.81100
O220        O  0.91675009  0.51667745  0.02513306    -0.81100
C221        C  0.91858395  0.54315697  0.99874612     1.08600
C222        C  0.09999673  0.54250240  0.02068581     1.08500
C223        C  0.99712166  0.53730823  0.09686692     1.08600
C224        C  0.02226862  0.55493851  0.92230016     1.08500
O225        O  0.98390339  0.44467829  0.94023052    -0.81100
O226        O  0.03592914  0.43223366  0.06174474    -0.81200
O227        O  0.94993691  0.43450602  0.02989117    -0.81100
O228        O  0.06832671  0.44170960  0.97039650    -0.81100
O229        O  0.09803600  0.45769648  0.02267287    -0.81100
O230        O  0.92049224  0.46194359  0.98241573    -0.81100
O231        O  0.03238881  0.47350850  0.91160445    -0.81000
O232        O  0.98691373  0.45425320  0.09389432    -0.81100
Co233      Co  0.96717583  0.49509693  0.96058255     1.51500
Co234      Co  0.05221648  0.48620525  0.05048951     1.51700
Co235      Co  0.96398482  0.48658514  0.04811513     1.51600
Co236      Co  0.05537191  0.49639638  0.96198067     1.51500
O237        O  0.00980206  0.49139986  0.00532483    -1.43000
C238        C  0.00531357  0.44796832  0.91072188     1.08500
C239        C  0.01478430  0.42994759  0.09146706     1.08600
C240        C  0.92022112  0.43639354  0.00973884     1.08600
C241        C  0.09653851  0.43676207  0.99210509     1.08500
C242        C  0.22960826  0.06642150  0.39625039     0.79300
N243        N  0.25916571  0.06671568  0.42217542    -0.79000
C244        C  0.29037808  0.09097941  0.41806437     0.81700
N245        N  0.29233375  0.11567897  0.38640042    -0.79000
C246        C  0.26253890  0.11704221  0.36006657     0.81800
N247        N  0.23098904  0.09217821  0.36510190    -0.80700
C248        C  0.24337270  0.19336135  0.27555092     0.79300
N249        N  0.21749101  0.22332868  0.27070554    -0.79000
C250        C  0.22130744  0.24915725  0.24000132     0.81700
N251        N  0.25123802  0.24431426  0.21360331    -0.79000
C252        C  0.27753447  0.21462729  0.21785057     0.81800
N253        N  0.27340401  0.18938440  0.24903206    -0.80700
C254        C  0.09592509  0.36763400  0.22486873     0.79300
N255        N  0.09158382  0.39098252  0.25642934    -0.79000
C256        C  0.11189162  0.38538921  0.28960133     0.81700
N257        N  0.13728291  0.35481615  0.29156749    -0.79000
C258        C  0.14346457  0.33125608  0.25978624     0.81800
N259        N  0.12264600  0.33783729  0.22620009    -0.80700
C260        C  0.39435881  0.20794462  0.08308877     0.79300
N261        N  0.36256667  0.20514910  0.10810646    -0.79000
C262        C  0.35517888  0.23448680  0.13449375     0.81700
N263        N  0.37919620  0.26658577  0.13494933    -0.79000
C264        C  0.41133881  0.26885956  0.11113906     0.81800
N265        N  0.41833914  0.23963906  0.08548236    -0.80700
C266        C  0.78805600  0.27952449  0.74189105     0.79300
N267        N  0.78595478  0.24790066  0.71758384    -0.79000
C268        C  0.75860002  0.21894375  0.72390165     0.81700
N269        N  0.73296912  0.22207785  0.75476953    -0.79000
C270        C  0.73484771  0.25317017  0.77961399     0.81800
N271        N  0.76223533  0.28189467  0.77267439    -0.80700
C272        C  0.88643427  0.42563201  0.72272342     0.79300
N273        N  0.91391866  0.42730513  0.75073231    -0.79000
C274        C  0.91490376  0.40115995  0.78053314     0.81700
N275        N  0.88680428  0.37262100  0.78289090    -0.79000
C276        C  0.85913719  0.36928097  0.75458901     0.81800
N277        N  0.85904769  0.39593482  0.72414427    -0.80700
C278        C  0.60810699  0.27231159  0.89379109     0.79300
N279        N  0.63730864  0.26847253  0.86650271    -0.79000
C280        C  0.65520829  0.23313174  0.86147402     0.81700
N281        N  0.64401044  0.20194044  0.88480677    -0.79000
C282        C  0.61563641  0.20605415  0.91315780     0.81800
N283        N  0.59777990  0.24119210  0.91677657    -0.80700
C284        C  0.73669533  0.11227076  0.59400224     0.79300
N285        N  0.74158402  0.13771448  0.62414686    -0.79000
C286        C  0.77564957  0.13792077  0.64467561     0.81700
N287        N  0.80429146  0.11143720  0.63522196    -0.79000
C288        C  0.79876752  0.08493739  0.60575837     0.81800
N289        N  0.76517758  0.08631858  0.58538660    -0.80700
C290        C  0.74510305  0.78572921  0.25600677     0.79300
N291        N  0.71639391  0.78005732  0.22885783    -0.79000
C292        C  0.71404639  0.74577770  0.20821883     0.81700
N293        N  0.74059785  0.71682315  0.21575045    -0.79000
C294        C  0.76917146  0.72199234  0.24299157     0.81800
N295        N  0.77085173  0.75633554  0.26300127    -0.80700
C296        C  0.73882282  0.89504835  0.38319969     0.79300
N297        N  0.74100184  0.87008896  0.35247253    -0.79000
C298        C  0.77481207  0.86682944  0.33117254     0.81700
N299        N  0.80665188  0.88981164  0.34077539    -0.79000
C300        C  0.80391282  0.91632748  0.37087682     0.81800
N301        N  0.77003312  0.91787810  0.39178709    -0.80700
C302        C  0.89769680  0.59652518  0.21953207     0.79300
N303        N  0.86988820  0.62377071  0.21125343    -0.79000
C304        C  0.84331775  0.63508096  0.23912712     0.81700
N305        N  0.84480752  0.61867317  0.27588113    -0.79000
C306        C  0.87177237  0.59033498  0.28380080     0.81800
N307        N  0.89782188  0.57980485  0.25561628    -0.80700
C308        C  0.59103395  0.78392145  0.07848121     0.79300
N309        N  0.62092176  0.78803061  0.10442954    -0.79000
C310        C  0.62818196  0.75947843  0.13195106     0.81700
N311        N  0.60451532  0.72659707  0.13338105    -0.79000
C312        C  0.57369525  0.72316165  0.10813775     0.81800
N313        N  0.56787786  0.75177089  0.08124058    -0.80700
C314        C  0.22260107  0.74757532  0.28745359     0.79300
N315        N  0.21945172  0.71643677  0.26251434    -0.79000
C316        C  0.24784248  0.70929320  0.23478351     0.81700
N317        N  0.27922286  0.73429141  0.23179422    -0.79000
C318        C  0.28308957  0.76548758  0.25638657     0.81800
N319        N  0.25454400  0.77194400  0.28397507    -0.80700
C320        C  0.41681680  0.88808123  0.28952733     0.79300
N321        N  0.41588394  0.90703218  0.25450273    -0.79000
C322        C  0.39017332  0.89683138  0.22638743     0.81700
N323        N  0.36459042  0.86652041  0.23323781    -0.79000
C324        C  0.36394610  0.84738311  0.26862720     0.81800
N325        N  0.39009809  0.85850298  0.29678858    -0.80700
C326        C  0.09939631  0.71424821  0.41872823     0.79300
N327        N  0.12749064  0.70999256  0.39031437    -0.79000
C328        C  0.13350952  0.73843124  0.36219819     0.81700
N329        N  0.11003729  0.77112957  0.36230389    -0.79000
C330        C  0.08075066  0.77443154  0.39010571     0.81800
N331        N  0.07649408  0.74611838  0.41769832    -0.80700
C332        C  0.29670815  0.57297041  0.12223966     0.79300
N333        N  0.29926631  0.60145774  0.15016954    -0.79000
C334        C  0.26860045  0.62642201  0.15707706     0.81700
N335        N  0.23560371  0.62305388  0.13489523    -0.79000
C336        C  0.23367398  0.59548786  0.10602744     0.81800
N337        N  0.26405874  0.57093220  0.10054961    -0.80700
O338        O  0.98932472  0.93326933  0.54014543    -0.81100
O339        O  0.05082753  0.08745419  0.51015768    -0.81100
O340        O  0.05847794  0.98090880  0.55376444    -0.81100
O341        O  0.95538407  0.00670836  0.55321188    -0.81100
O342        O  0.09469549  0.02032380  0.51621121    -0.81200
O343        O  0.92487581  0.96838261  0.51468381    -0.81100
O344        O  0.00324571  0.07128709  0.55223496    -0.81100
O345        O  0.04502418  0.90437431  0.52836697    -0.81100
C346        C  0.01192223  0.90426467  0.54623329     1.08600
C347        C  0.03375520  0.09122554  0.54307383     1.08500
C348        C  0.09084988  0.99792083  0.54686273     1.08600
C349        C  0.92420660  0.98948956  0.54539504     1.08500
O350        O  0.96365140  0.98373289  0.43823970    -0.81100
O351        O  0.06403127  0.99960357  0.43725422    -0.81200
O352        O  0.02327886  0.93150709  0.45510677    -0.81100
O353        O  0.97737915  0.08975989  0.47577855    -0.81100
O354        O  0.02187292  0.06753607  0.43418286    -0.81100
O355        O  0.96491932  0.90747829  0.46728393    -0.81100
O356        O  0.92780994  0.02544508  0.47132400    -0.81000
O357        O  0.09058128  0.95976772  0.47777362    -0.81100
Co358      Co  0.97878914  0.95962823  0.48747230     1.51500
Co359      Co  0.05557439  0.04178570  0.47466865     1.51700
Co360      Co  0.03731179  0.95731828  0.50664856     1.51600
Co361      Co  0.96793919  0.04603485  0.51314794     1.51500
O362        O  0.01063566  0.00942642  0.49605693    -1.43000
C363        C  0.93228111  0.00231360  0.44169637     1.08500
C364        C  0.09331302  0.97994649  0.44620739     1.08600
C365        C  0.99763402  0.90504096  0.44895280     1.08600
C366        C  0.99407684  0.09069012  0.44257715     1.08500
C367        C  0.01718427  0.80257472  0.41382524    -0.14300
C368        C  0.05323611  0.80815847  0.39338404     0.07900
C369        C  0.06476159  0.84652403  0.38364554    -0.14300
C370        C  0.04315390  0.87838143  0.39790150    -0.14300
C371        C  0.00976856  0.87267571  0.42246506     0.07900
C372        C  0.99580225  0.83439697  0.42837818    -0.14300
H373        H  0.00696016  0.77323254  0.42138794     0.11800
H374        H  0.09208034  0.85199481  0.36811392     0.11800
H375        H  0.05470809  0.90770426  0.39253473     0.11800
H376        H  0.97062925  0.82884627  0.44722725     0.11800
C377        C  0.24282441  0.67606591  0.20620187    -0.17400
C378        C  0.27298508  0.65871981  0.18673484    -0.32500
H379        H  0.21333920  0.66504394  0.20169203     0.11700
H380        H  0.30261919  0.66789763  0.19348270     0.12200
C381        C  0.19083898  0.75686861  0.31721605    -0.17400
C382        C  0.16323178  0.73078266  0.33010901    -0.32500
H383        H  0.19145544  0.78575179  0.33035936     0.11700
H384        H  0.16466666  0.70094677  0.31933591     0.12200
C385        C  0.31601300  0.79446712  0.24940377    -0.17400
C386        C  0.33315278  0.81648200  0.27749986    -0.32500
H387        H  0.32702151  0.79728934  0.21952704     0.11700
H388        H  0.32452172  0.81168446  0.30788444     0.12200
C389        C  0.87564328  0.93833212  0.37031296    -0.14300
C390        C  0.83682016  0.94328523  0.38307460     0.07900
C391        C  0.82945829  0.97341681  0.41056917    -0.14300
C392        C  0.85998410  0.99555864  0.42702577    -0.14300
C393        C  0.89906618  0.98847778  0.41657765     0.07900
C394        C  0.90620595  0.96057403  0.38673956    -0.14300
H395        H  0.88270348  0.91593382  0.34911804     0.11800
H396        H  0.79994508  0.97895621  0.42083306     0.11800
H397        H  0.85307357  0.01648259  0.44972114     0.11800
H398        H  0.93590770  0.95404446  0.37769771     0.11800
C399        C  0.68133402  0.73808675  0.17955373    -0.17400
C400        C  0.66041255  0.76649264  0.16124596    -0.32500
H401        H  0.67527454  0.70770886  0.17224946     0.11700
H402        H  0.66847515  0.79687189  0.16647353     0.12200
C403        C  0.79682880  0.68991487  0.25401193    -0.17400
C404        C  0.81284825  0.66458884  0.22829224    -0.32500
H405        H  0.80688219  0.68932778  0.28404643     0.11700
H406        H  0.80556245  0.66745704  0.19754400     0.12200
C407        C  0.74525675  0.82164572  0.28131244    -0.17400
C408        C  0.77732708  0.83582728  0.30009414    -0.32500
H409        H  0.71740982  0.83613413  0.28577201     0.11700
H410        H  0.80577363  0.82325742  0.29380997     0.12200
C411        C  0.85246757  0.00642605  0.54656262    -0.14300
C412        C  0.88823941  0.00384905  0.56588258     0.07900
C413        C  0.89244159  0.02458771  0.60132745    -0.14300
C414        C  0.86326286  0.04995021  0.61512929    -0.14300
C415        C  0.82870217  0.05502813  0.59412474     0.07900
C416        C  0.82309234  0.03158347  0.56053363    -0.14300
H417        H  0.84825504  0.99130918  0.51919540     0.11800
H418        H  0.91969725  0.02331757  0.61710842     0.11800
H419        H  0.86846610  0.06667883  0.64136890     0.11800
H420        H  0.79659562  0.03400231  0.54369759     0.11800
C421        C  0.78263537  0.16852167  0.67532521    -0.17400
C422        C  0.75318351  0.18634208  0.69516790    -0.32500
H423        H  0.81267828  0.17644273  0.68178184     0.11700
H424        H  0.72342148  0.17602766  0.69084854     0.12200
C425        C  0.70571409  0.25781574  0.81254085    -0.17400
C426        C  0.68534156  0.22772085  0.82955843    -0.32500
H427        H  0.70154768  0.28723826  0.82371209     0.11700
H428        H  0.69126820  0.19797248  0.82020325     0.12200
C429        C  0.81751732  0.31174812  0.73363418    -0.17400
C430        C  0.82737553  0.33912213  0.76033812    -0.32500
H431        H  0.83274640  0.31186396  0.70549520     0.11700
H432        H  0.81442123  0.33694344  0.78951392     0.12200
C433        C  0.31089425  0.20952768  0.18909019    -0.17400
C434        C  0.31889305  0.23520527  0.15950561    -0.32500
H435        H  0.33047166  0.18501042  0.19355231     0.11700
H436        H  0.30081596  0.26107598  0.15669614     0.12200
C437        C  0.19272672  0.28204425  0.23428849    -0.17400
C438        C  0.17105449  0.29737722  0.26385617    -0.32500
H439        H  0.19091838  0.29522353  0.20527508     0.11700
H440        H  0.17538331  0.28609176  0.29333498     0.12200
C441        C  0.16301984  0.03742112  0.38082169    -0.14300
C442        C  0.19678944  0.03782356  0.40362990     0.07900
C443        C  0.19850878  0.01147495  0.43588402    -0.14300
C444        C  0.16611013  0.98846578  0.44731970    -0.14300
C445        C  0.13106639  0.99115846  0.42686328     0.07900
C446        C  0.13061594  0.01421825  0.39222650    -0.14300
H447        H  0.16079908  0.05655351  0.35548591     0.11800
H448        H  0.22430932  0.01001413  0.45385067     0.11800
H449        H  0.16753609  0.97116030  0.47399806     0.11800
H450        H  0.10399542  0.01678422  0.37558692     0.11800
C451        C  0.26693551  0.14371283  0.32492337    -0.17400
C452        C  0.23756113  0.16474352  0.30906212    -0.32500
H453        H  0.29646941  0.14858741  0.31363369     0.11700
H454        H  0.20859427  0.16259156  0.32245696     0.12200
C455        C  0.96648182  0.39603924  0.87787526    -0.14300
C456        C  0.99250518  0.42824136  0.87463060     0.07900
C457        C  0.99759797  0.44675590  0.83811530    -0.14300
C458        C  0.97404149  0.43599792  0.80668941    -0.14300
C459        C  0.94492622  0.40653302  0.81120249     0.07900
C460        C  0.94290322  0.38530236  0.84651163    -0.14300
H461        H  0.96206938  0.38113494  0.90574951     0.11800
H462        H  0.01712849  0.47181272  0.83479076     0.11800
H463        H  0.97705223  0.45254773  0.77958597     0.11800
H464        H  0.92135484  0.36214298  0.85084335     0.11800
C465        C  0.97971204  0.54008248  0.16842986    -0.14300
C466        C  0.98111190  0.55824641  0.13140748     0.07900
C467        C  0.95774511  0.59151478  0.12505052    -0.14300
C468        C  0.93154235  0.60461647  0.15386415    -0.14300
C469        C  0.92800160  0.58486918  0.18997754     0.07900
C470        C  0.95347131  0.55326848  0.19741481    -0.14300
H471        H  0.99661325  0.51392245  0.17397039     0.11800
H472        H  0.95789255  0.60592884  0.09664434     0.11800
H473        H  0.91304912  0.62936977  0.14724511     0.11800
H474        H  0.95194224  0.53748894  0.22505847     0.11800
C475        C  0.01675546  0.41473185  0.16340667    -0.14300
C476        C  0.02863425  0.40582714  0.12515420     0.07900
C477        C  0.05983496  0.37922473  0.11997784    -0.14300
C478        C  0.08057404  0.36448155  0.15220949    -0.14300
C479        C  0.07071404  0.37622785  0.19033584     0.07900
C480        C  0.03746838  0.40021060  0.19544854    -0.14300
H481        H  0.99316295  0.43514659  0.16857854     0.11800
H482        H  0.06981382  0.37169793  0.09078141     0.11800
H483        H  0.10566707  0.34593273  0.14709494     0.11800
H484        H  0.02832752  0.40940704  0.22439956     0.11800
C485        C  0.17175865  0.55902821  0.02228733    -0.14300
C486        C  0.13377886  0.56451112  0.03695553     0.07900
C487        C  0.12888121  0.58601365  0.07191254    -0.14300
C488        C  0.16124341  0.59879880  0.09333371    -0.14300
C489        C  0.19922022  0.59030509  0.08030288     0.07900
C490        C  0.20406220  0.57176216  0.04370194    -0.14300
H491        H  0.17662070  0.54265212  0.99563569     0.11800
H492        H  0.09992611  0.59088166  0.08407878     0.11800
H493        H  0.15648417  0.61294420  0.12126080     0.11800
H494        H  0.23303764  0.56524709  0.03246585     0.11800
C495        C  0.84708695  0.43206419  0.01459339    -0.14300
C496        C  0.88359272  0.41769441  0.02559596     0.07900
C497        C  0.88505958  0.39185771  0.05824654    -0.14300
C498        C  0.85127500  0.38280385  0.08073893    -0.14300
C499        C  0.81520854  0.39944880  0.07118401     0.07900
C500        C  0.81351143  0.42314239  0.03699376    -0.14300
H501        H  0.84478176  0.45240565  0.99016624     0.11800
H502        H  0.91282178  0.38049142  0.06786062     0.11800
H503        H  0.85379971  0.36442250  0.10662129     0.11800
H504        H  0.78627771  0.43623013  0.02811963     0.11800
C505        C  0.97970591  0.19275285  0.40675596    -0.14300
C506        C  0.94095382  0.19079507  0.39337258     0.07900
C507        C  0.92391193  0.15366852  0.38761534    -0.14300
C508        C  0.94368959  0.11952637  0.39917950    -0.14300
C509        C  0.98120627  0.12191333  0.41555062     0.07900
C510        C  0.99965339  0.15868937  0.41752559    -0.14300
H511        H  0.99368323  0.22092935  0.41141793     0.11800
H512        H  0.89404200  0.15121773  0.37769762     0.11800
H513        H  0.92835923  0.09159905  0.39854379     0.11800
H514        H  0.02797277  0.16147891  0.43115137     0.11800
C515        C  0.69036646  0.20325932  0.26660102    -0.17400
C516        C  0.66784336  0.19071532  0.23697674    -0.32500
H517        H  0.68692801  0.18852938  0.29482205     0.11700
H518        H  0.67356376  0.20289960  0.20791449     0.12200
C519        C  0.76361747  0.31625622  0.19949819    -0.17400
C520        C  0.73455049  0.33334802  0.17876625    -0.32500
H521        H  0.79335410  0.32658924  0.19398748     0.11700
H522        H  0.70449039  0.32533662  0.18605921     0.12200
C523        C  0.81783377  0.24609618  0.31522653    -0.17400
C524        C  0.83647323  0.27462504  0.33523531    -0.32500
H525        H  0.82428394  0.21572526  0.32226639     0.11700
H526        H  0.82760466  0.30483023  0.33080360     0.12200
C527        C  0.09255308  0.61572807  0.85873519    -0.14300
C528        C  0.07669713  0.61002521  0.82154606     0.07900
C529        C  0.03898591  0.59297600  0.81922849    -0.14300
C530        C  0.01937668  0.57833791  0.85256653    -0.14300
C531        C  0.03680816  0.58044419  0.88934093     0.07900
C532        C  0.07275960  0.60111158  0.89232901    -0.14300
H533        H  0.12140403  0.62867476  0.86161142     0.11800
H534        H  0.02551526  0.58865597  0.79105720     0.11800
H535        H  0.99188002  0.56282113  0.84905686     0.11800
H536        H  0.08708040  0.60341650  0.92031079     0.11800
C537        C  0.15526546  0.92942436  0.60680079    -0.14300
C538        C  0.19288076  0.93984182  0.59315533     0.07900
C539        C  0.19668161  0.97402745  0.56946774    -0.14300
C540        C  0.16387607  0.99526172  0.55732128    -0.14300
C541        C  0.12596891  0.98313129  0.56840800     0.07900
C542        C  0.12231297  0.95074213  0.59459344    -0.14300
H543        H  0.15103062  0.90352261  0.62497870     0.11800
H544        H  0.22518934  0.98359882  0.55870377     0.11800
H545        H  0.16813596  0.01972940  0.53723334     0.11800
H546        H  0.09362853  0.94013698  0.60373993     0.11800
C547        C  0.19945179  0.69668544  0.76278017    -0.17400
C548        C  0.17765636  0.67862552  0.73512909    -0.32500
H549        H  0.19669164  0.68628562  0.79284651     0.11700
H550        H  0.18251911  0.68695527  0.70467475     0.12200
C551        C  0.24362033  0.81462172  0.68503624    -0.17400
C552        C  0.27135288  0.83837042  0.66803264    -0.32500
H553        H  0.21449201  0.81487070  0.67274854     0.11700
H554        H  0.30120704  0.83576844  0.67814895     0.12200
C555        C  0.31653310  0.77195473  0.80564914    -0.17400
C556        C  0.33165313  0.74284368  0.82844520    -0.32500
H557        H  0.32810199  0.80154376  0.80854536     0.11700
H558        H  0.32204557  0.71294572  0.82306354     0.12200
C559        C  0.60521409  0.84765491  0.04205276    -0.14300
C560        C  0.58190502  0.81401631  0.04771082     0.07900
C561        C  0.54830490  0.80967926  0.02420431    -0.14300
C562        C  0.53655598  0.83964072  0.99850447    -0.14300
C563        C  0.55809514  0.87469506  0.99555996     0.07900
C564        C  0.59359778  0.87742435  0.01617323    -0.14300
H565        H  0.63155296  0.85181149  0.05885576     0.11800
H566        H  0.52977950  0.78388639  0.02702702     0.11800
H567        H  0.50909202  0.83656263  0.98334747     0.11800
H568        H  0.61101509  0.90407956  0.01455328     0.11800
C569        C  0.37960429  0.85477211  0.92972248    -0.14300
C570        C  0.39263189  0.81725955  0.94006830     0.07900
C571        C  0.41333555  0.81301498  0.97545021    -0.14300
C572        C  0.42450120  0.84564487  0.99743877    -0.14300
C573        C  0.41521148  0.88357160  0.98480558     0.07900
C574        C  0.39060949  0.88752105  0.95194478    -0.14300
H575        H  0.36333113  0.85918917  0.90310193     0.11800
H576        H  0.42311608  0.78442623  0.98513241     0.11800
H577        H  0.44304925  0.84129867  0.02252055     0.11800
H578        H  0.38256146  0.91633151  0.94126905     0.11800
C579        C  0.58229981  0.01558871  0.14612412    -0.14300
C580        C  0.57268956  0.03451163  0.11104306     0.07900
C581        C  0.58239331  0.07441954  0.10591461    -0.14300
C582        C  0.59901682  0.09578161  0.13641357    -0.14300
C583        C  0.60504987  0.07775208  0.17286972     0.07900
C584        C  0.59808548  0.03713255  0.17695076    -0.14300
H585        H  0.57428548  0.98508417  0.15096249     0.11800
H586        H  0.57448868  0.08974847  0.07933133     0.11800
H587        H  0.60373666  0.12707093  0.13264181     0.11800
H588        H  0.60250685  0.02259812  0.20484602     0.11800
C589        C  0.40419927  0.91880888  0.11830175    -0.14300
C590        C  0.41556885  0.95859859  0.11917012     0.07900
C591        C  0.41164021  0.97910513  0.15434301    -0.14300
C592        C  0.40013486  0.95934673  0.18880173    -0.14300
C593        C  0.39173759  0.91882870  0.18865620     0.07900
C594        C  0.39175344  0.89917933  0.15269718    -0.14300
H595        H  0.40791545  0.90217570  0.09162728     0.11800
H596        H  0.42118554  0.00942505  0.15598549     0.11800
H597        H  0.40033259  0.97521243  0.21615157     0.11800
H598        H  0.38577194  0.86795249  0.15177785     0.11800
C599        C  0.38045255  0.14419861  0.04781265    -0.14300
C600        C  0.40352418  0.17799619  0.05232706     0.07900
C601        C  0.43669627  0.18288214  0.02728432    -0.14300
C602        C  0.44822028  0.15342395  0.00105223    -0.14300
C603        C  0.42699387  0.11819109  0.99916699     0.07900
C604        C  0.39191911  0.11487140  0.02150676    -0.14300
H605        H  0.35444696  0.13958229  0.06576940     0.11800
H606        H  0.45498913  0.20887396  0.02906860     0.11800
H607        H  0.47520796  0.15706967  0.98444313     0.11800
H608        H  0.37466462  0.08808630  0.02078002     0.11800
C609        C  0.56095831  0.14805491  0.99383841    -0.14300
C610        C  0.57102686  0.10921526  0.98527008     0.07900
C611        C  0.59957616  0.10304272  0.95557729    -0.14300
C612        C  0.61512282  0.13430593  0.93312119    -0.14300
C613        C  0.60287293  0.17287266  0.93972712     0.07900
C614        C  0.57658938  0.17941448  0.97136189    -0.14300
H615        H  0.53932231  0.15409531  0.01640040     0.11800
H616        H  0.60825562  0.07359343  0.94787782     0.11800
H617        H  0.63546696  0.12798363  0.90945661     0.11800
H618        H  0.56687417  0.20878918  0.97797274     0.11800
C619        C  0.04789882  0.18949144  0.59042654    -0.14300
C620        C  0.08771627  0.18836313  0.60062379     0.07900
C621        C  0.10758912  0.15264235  0.59741101    -0.14300
C622        C  0.08888704  0.11972259  0.58130563    -0.14300
C623        C  0.04964832  0.12155928  0.56940274     0.07900
C624        C  0.02898468  0.15636434  0.57532470    -0.14300
H625        H  0.03185728  0.21667970  0.59238618     0.11800
H626        H  0.13832875  0.15101095  0.60447810     0.11800
H627        H  0.10564686  0.09339535  0.57619775     0.11800
H628        H  0.99910089  0.15886085  0.56547643     0.11800
C629        C  0.39013212  0.06331850  0.83929388    -0.14300
C630        C  0.40217618  0.05320424  0.80135599     0.07900
C631        C  0.42216434  0.01731661  0.79633366    -0.14300
C632        C  0.43314816  0.99422236  0.82858996    -0.14300
C633        C  0.42445750  0.00642562  0.86673815     0.07900
C634        C  0.40118390  0.04025647  0.87154813    -0.14300
H635        H  0.37467439  0.09046624  0.84435533     0.11800
H636        H  0.43143759  0.00813790  0.76742521     0.11800
H637        H  0.45130000  0.96876177  0.82375153     0.11800
H638        H  0.39394369  0.05060261  0.90062521     0.11800
C639        C  0.15953630  0.37996514  0.92026627    -0.14300
C640        C  0.19653606  0.38378187  0.93688762     0.07900
C641        C  0.19909317  0.39868213  0.97527975    -0.14300
C642        C  0.16604528  0.41299280  0.99508266    -0.14300
C643        C  0.12955402  0.41259206  0.97699995     0.07900
C644        C  0.12640873  0.39416423  0.94012861    -0.14300
H645        H  0.15659452  0.36898681  0.89078561     0.11800
H646        H  0.22730749  0.40172274  0.98906123     0.11800
H647        H  0.16958529  0.42679638  0.02325350     0.11800
H648        H  0.09864177  0.39317428  0.92522836     0.11800
C649        C  0.18588135  0.26872069  0.67357386    -0.17400
C650        C  0.20744617  0.23872931  0.68832201    -0.32500
H651        H  0.19084243  0.29805494  0.68471475     0.11700
H652        H  0.20444153  0.20995865  0.67523943     0.12200
C653        C  0.34005537  0.16671090  0.72972227    -0.17400
C654        C  0.32325016  0.18687986  0.75974780    -0.32500
H655        H  0.33173884  0.17437913  0.70005483     0.11700
H656        H  0.33371069  0.18160018  0.78920689     0.12200
C657        C  0.25101719  0.30384756  0.81068431    -0.17400
C658        C  0.27954325  0.32214340  0.83123037    -0.32500
H659        H  0.22096887  0.31294236  0.81547920     0.11700
H660        H  0.30982267  0.31542586  0.82420034     0.12200
C661        C  0.81392749  0.56841439  0.97291554    -0.14300
C662        C  0.81947096  0.59469540  0.94087075     0.07900
C663        C  0.85763962  0.60785670  0.93235933    -0.14300
C664        C  0.88942296  0.59333882  0.95357531    -0.14300
C665        C  0.88407560  0.56517000  0.98390667     0.07900
C666        C  0.84573550  0.55380124  0.99404377    -0.14300
H667        H  0.78493433  0.55772171  0.98083606     0.11800
H668        H  0.86319575  0.62798313  0.90818610     0.11800
H669        H  0.91861015  0.60273192  0.94473994     0.11800
H670        H  0.84043853  0.53195907  0.01677095     0.11800
C671        C  0.93979417  0.84835295  0.61109965    -0.14300
C672        C  0.94753068  0.80939166  0.60092894     0.07900
C673        C  0.98202341  0.80183179  0.57890677    -0.14300
C674        C  0.00602467  0.83255717  0.56441320    -0.14300
C675        C  0.99612654  0.87168030  0.57153254     0.07900
C676        C  0.96371131  0.87902565  0.59653911    -0.14300
H677        H  0.91382016  0.85541563  0.62800786     0.11800
H678        H  0.98936177  0.77208834  0.57086185     0.11800
H679        H  0.03030210  0.82578426  0.54501119     0.11800
H680        H  0.95510743  0.90891256  0.60264217     0.11800
C681        C  0.73323587  0.69093779  0.81210529    -0.17400
C682        C  0.76153535  0.66807281  0.82806710    -0.32500
H683        H  0.70409465  0.68986237  0.82517973     0.11700
H684        H  0.79118712  0.67165322  0.81665718     0.12200
C685        C  0.82596144  0.75728571  0.66675536    -0.17400
C686        C  0.80954677  0.72999162  0.69141937    -0.32500
H687        H  0.81551567  0.78720439  0.66880495     0.11700
H688        H  0.82207955  0.70082720  0.69193202     0.12200
C689        C  0.61137613  0.93648508  0.84939618    -0.14300
C690        C  0.60293660  0.94534605  0.81028256     0.07900
C691        C  0.58199106  0.98019205  0.80239073    -0.14300
C692        C  0.56647163  0.00316076  0.83280430    -0.14300
C693        C  0.57159310  0.99195097  0.87190601     0.07900
C694        C  0.59598565  0.95951032  0.87974713    -0.14300
H695        H  0.62752522  0.91026602  0.85674513     0.11800
H696        H  0.57540485  0.98849875  0.77256925     0.11800
H697        H  0.54759796  0.02750563  0.82563878     0.11800
H698        H  0.60061164  0.94997336  0.90964392     0.11800
C699        C  0.66736806  0.82451392  0.75844426    -0.17400
C700        C  0.69149801  0.80767007  0.73138294    -0.32500
H701        H  0.66919705  0.81407819  0.78850024     0.11700
H702        H  0.69209383  0.82003698  0.70196954     0.12200
C703        C  0.44104875  0.37550494  0.10325355    -0.14300
C704        C  0.47769457  0.37236172  0.08452886     0.07900
C705        C  0.49522298  0.33551877  0.08164049    -0.14300
C706        C  0.47476906  0.30181833  0.09379005    -0.14300
C707        C  0.43645875  0.30446013  0.10910148     0.07900
C708        C  0.42068764  0.34175355  0.11593015    -0.14300
H709        H  0.42666310  0.40368316  0.10480069     0.11800
H710        H  0.52302881  0.33244780  0.06643919     0.11800
H711        H  0.48779584  0.27344307  0.08844729     0.11800
H712        H  0.39123389  0.34467360  0.12748832     0.11800
C713        C  0.58999962  0.37751737  0.92181011    -0.14300
C714        C  0.54955039  0.37661141  0.93004929     0.07900
C715        C  0.52786452  0.34300526  0.92069457    -0.14300
C716        C  0.54683688  0.30973665  0.90626998    -0.14300
C717        C  0.58763459  0.30986444  0.90004589     0.07900
C718        C  0.60882331  0.34459708  0.90629589    -0.14300
H719        H  0.60738070  0.40294071  0.92958547     0.11800
H720        H  0.49688869  0.34130482  0.92769976     0.11800
H721        H  0.52993691  0.28313990  0.90191734     0.11800
H722        H  0.64030531  0.34523382  0.90228754     0.11800
C723        C  0.66036924  0.49962637  0.05638794    -0.14300
C724        C  0.62363007  0.49847857  0.07504586     0.07900
C725        C  0.61883336  0.47355082  0.10825261    -0.14300
C726        C  0.64867135  0.44844452  0.12060738    -0.14300
C727        C  0.68468348  0.44781272  0.10058878     0.07900
C728        C  0.69048991  0.47477530  0.06906130    -0.14300
H729        H  0.66512026  0.51789152  0.03063131     0.11800
H730        H  0.59084866  0.47162297  0.12344509     0.22200
H731        H  0.64303326  0.42867572  0.14508160     0.11800
H732        H  0.71796869  0.47568953  0.05294476     0.11800
C733        C  0.61606955  0.54855532  0.90443698    -0.14300
C734        C  0.62049145  0.51710131  0.93143799     0.07900
C735        C  0.65842218  0.50743306  0.94274558    -0.14300
C736        C  0.69050556  0.53024551  0.93007069    -0.14300
C737        C  0.68592491  0.56358678  0.90551799     0.07900
C738        C  0.64836252  0.57151786  0.89165915    -0.14300
H739        H  0.58722096  0.55713285  0.89507851     0.11800
H740        H  0.66316470  0.48371674  0.96341977     0.11800
H741        H  0.71899750  0.52238064  0.94096640     0.11800
H742        H  0.64360638  0.59655891  0.87263302     0.11800
C743        C  0.53826013  0.61758317  0.10430095    -0.14300
C744        C  0.50373677  0.62135137  0.08209477     0.07900
C745        C  0.48867364  0.65897185  0.07639605    -0.14300
C746        C  0.50993433  0.69202898  0.08864666    -0.14300
C747        C  0.54686228  0.68831450  0.10663015     0.07900
C748        C  0.55965394  0.65061596  0.11627347    -0.14300
H749        H  0.55076358  0.58891128  0.10944821     0.11800
H750        H  0.46257427  0.66308275  0.05930024     0.11800
H751        H  0.49876782  0.72077865  0.08127664     0.11800
H752        H  0.58769244  0.64654868  0.13001419     0.11800
C753        C  0.47281413  0.69585053  0.93407774    -0.14300
C754        C  0.44189206  0.68806728  0.90790040     0.07900
C755        C  0.43715804  0.64937819  0.89498391    -0.14300
C756        C  0.46083425  0.61916865  0.90973935    -0.14300
C757        C  0.49031848  0.62670851  0.93747647     0.07900
C758        C  0.49666955  0.66569405  0.94855242    -0.14300
H759        H  0.47776711  0.72526060  0.94472338     0.11800
H760        H  0.41387775  0.64205148  0.87505275     0.11800
H761        H  0.45466928  0.58933820  0.90093843     0.11800
H762        H  0.51821579  0.67254715  0.97050598     0.11800
C763        C  0.35439362  0.49204334  0.07125101    -0.14300
C764        C  0.39255306  0.49898603  0.08411709     0.07900
C765        C  0.39780363  0.52647153  0.11451617    -0.14300
C766        C  0.36660513  0.54924227  0.12857534    -0.14300
C767        C  0.32913875  0.54496213  0.11290006     0.07900
C768        C  0.32318772  0.51470705  0.08536594    -0.14300
H769        H  0.34904841  0.47118605  0.04815816     0.11800
H770        H  0.42678079  0.53264715  0.12543034     0.11800
H771        H  0.37235135  0.57164937  0.15007941     0.11800
H772        H  0.29458912  0.50970373  0.07304305     0.11800
C773        C  0.34909492  0.48676398  0.95659009    -0.14300
C774        C  0.38561287  0.48849925  0.93759944     0.07900
C775        C  0.39067162  0.46665405  0.90282841    -0.14300
C776        C  0.36147296  0.44098470  0.88955804    -0.14300
C777        C  0.32607574  0.43676314  0.91037451     0.07900
C778        C  0.31973593  0.46130273  0.94316555    -0.14300
H779        H  0.34409714  0.50299476  0.98328294     0.11800
H780        H  0.41845754  0.46735336  0.88721359     0.11800
H781        H  0.36724972  0.42339392  0.86388915     0.11800
H782        H  0.29258003  0.45964055  0.95978410     0.11800
C783        C  0.07429817  0.47335087  0.34531985    -0.14300
C784        C  0.07238663  0.45904673  0.38385176     0.07900
C785        C  0.08846343  0.42204423  0.39219345    -0.14300
C786        C  0.10454974  0.39895436  0.36212687    -0.14300
C787        C  0.10384338  0.41214225  0.32304220     0.07900
C788        C  0.08980258  0.45020290  0.31530092    -0.14300
H789        H  0.06111303  0.50119288  0.33795459     0.11800
H790        H  0.08627327  0.40994262  0.42160051     0.11800
H791        H  0.11471746  0.36974754  0.36903307     0.11800
H792        H  0.08885979  0.46135387  0.28551192     0.11800
C793        C  0.89572290  0.51304584  0.35868292    -0.14300
C794        C  0.91313960  0.53610441  0.38754019     0.07900
C795        C  0.90855302  0.57711278  0.38578315    -0.14300
C796        C  0.88981786  0.59497454  0.35405415    -0.14300
C797        C  0.87617361  0.57217668  0.32305142     0.07900
C798        C  0.87786000  0.53098781  0.32642472    -0.14300
H799        H  0.89930207  0.48150343  0.35905226     0.11800
H800        H  0.92198834  0.59555316  0.40759106     0.11800
H801        H  0.88970851  0.62669147  0.35180519     0.11800
H802        H  0.86820223  0.51280402  0.30249850     0.11800
C803        C  0.05421380  0.50953787  0.66990091    -0.14300
C804        C  0.06551078  0.51444830  0.63059997     0.07900
C805        C  0.09489189  0.54264588  0.62139227    -0.14300
C806        C  0.11105008  0.56673595  0.65034946    -0.14300
C807        C  0.09800399  0.56356879  0.68938182     0.07900
C808        C  0.07019963  0.53371361  0.69884197    -0.14300
H809        H  0.03095733  0.48907886  0.67789143     0.11800
H810        H  0.10381986  0.54763301  0.59118186     0.11800
H811        H  0.13232655  0.58903664  0.64181714     0.11800
H812        H  0.05935392  0.52995466  0.72858614     0.11800
C813        C  0.88931168  0.47198851  0.62159892    -0.14300
C814        C  0.91601832  0.50324595  0.62742865     0.07900
C815        C  0.92467906  0.51391819  0.66577893    -0.14300
C816        C  0.91130908  0.49053685  0.69722661    -0.14300
C817        C  0.88913715  0.45592223  0.69096222     0.07900
C818        C  0.87604209  0.44844714  0.65307458    -0.14300
H819        H  0.88200044  0.46315153  0.59218011     0.11800
H820        H  0.94533178  0.53746880  0.67124682     0.11800
H821        H  0.92122908  0.49780184  0.72627435     0.11800
H822        H  0.85874342  0.42244122  0.64721700     0.11800
C823        C  0.06393270  0.35083622  0.51150677    -0.14300
C824        C  0.07335008  0.38991295  0.52010450     0.07900
C825        C  0.10126516  0.39656811  0.54973342    -0.14300
C826        C  0.11680898  0.36543914  0.57192461    -0.14300
C827        C  0.10498127  0.32653759  0.56529124     0.07900
C828        C  0.07925739  0.31975533  0.53381568    -0.14300
H829        H  0.04304327  0.34428705  0.48888915     0.11800
H830        H  0.10952036  0.42621182  0.55745935     0.11800
H831        H  0.13676227  0.37205814  0.59537537     0.11800
H832        H  0.06981277  0.29024599  0.52700135     0.11800
C833        C  0.89664801  0.38045917  0.48333781    -0.14300
C834        C  0.93112614  0.37859829  0.50557119     0.07900
C835        C  0.95344800  0.34430174  0.50335352    -0.14300
C836        C  0.94350390  0.31443838  0.47685236    -0.14300
C837        C  0.91086896  0.31809195  0.45203668     0.07900
C838        C  0.88680208  0.35087803  0.45688078    -0.14300
H839        H  0.87856257  0.40640447  0.48429864     0.11800
H840        H  0.97992621  0.34174136  0.52007622     0.11800
H841        H  0.96249626  0.28926479  0.47460284     0.11800
H842        H  0.86107385  0.35450705  0.43913746     0.11800
C843        C  0.89403431  0.61226029  0.54441178    -0.14300
C844        C  0.92169576  0.61680383  0.51328044     0.07900
C845        C  0.93485729  0.65490531  0.50425671    -0.14300
C846        C  0.92370284  0.68670705  0.52768145    -0.14300
C847        C  0.89889254  0.68166292  0.56100412     0.07900
C848        C  0.88282937  0.64420191  0.56795278    -0.14300
H849        H  0.88307679  0.58337724  0.55247344     0.11800
H850        H  0.95595763  0.65984178  0.48072267     0.11800
H851        H  0.93618004  0.71521794  0.52055231     0.11800
H852        H  0.86351231  0.63905315  0.59291725     0.11800
C853        C  0.04650029  0.65861652  0.50104074    -0.14300
C854        C  0.06553766  0.62248410  0.50036700     0.07900
C855        C  0.10014419  0.61912510  0.47752924    -0.14300
C856        C  0.11254495  0.64945519  0.45222984    -0.14300
C857        C  0.09100498  0.68410517  0.44970418     0.07900
C858        C  0.05907487  0.68909998  0.47601835    -0.14300
H859        H  0.01997192  0.66224676  0.51831845     0.11800
H860        H  0.11577413  0.59166247  0.47663678     0.11800
H861        H  0.13768655  0.64487651  0.43317999     0.11800
H862        H  0.04214579  0.71576191  0.47573589     0.11800
C863        C  0.47756611  0.10057602  0.60584138    -0.14300
C864        C  0.50456067  0.06961475  0.61035293     0.07900
C865        C  0.50832358  0.05301767  0.64782261    -0.14300
C866        C  0.48356538  0.06450709  0.67882231    -0.14300
C867        C  0.45434358  0.09322727  0.67348957     0.07900
C868        C  0.45284831  0.11218128  0.63689349    -0.14300
H869        H  0.47361806  0.11414215  0.57740885     0.11800
H870        H  0.52849490  0.02916173  0.65258449     0.11800
H871        H  0.48634712  0.04949563  0.70668126     0.11800
H872        H  0.43125431  0.13462544  0.63159696     0.11800
C873        C  0.55412251  0.89957079  0.60981789    -0.14300
C874        C  0.52413326  0.92799921  0.61308933     0.07900
C875        C  0.51548829  0.94231645  0.65048920    -0.14300
C876        C  0.53750625  0.93045262  0.68298193    -0.14300
C877        C  0.56903966  0.90377197  0.67940242     0.07900
C878        C  0.57619920  0.88763902  0.64239507    -0.14300
H879        H  0.56195204  0.88778335  0.58144674     0.11800
H880        H  0.49290941  0.96405698  0.65440323     0.11800
H881        H  0.53033534  0.94334976  0.71101899     0.11800
H882        H  0.59987704  0.86714210  0.63822961     0.11800
C883        C  0.39134902  0.09572165  0.46303941    -0.14300
C884        C  0.38782407  0.06772783  0.49365279     0.07900
C885        C  0.35055207  0.05282181  0.50315282    -0.14300
C886        C  0.31839666  0.06250942  0.47997461    -0.14300
C887        C  0.32275784  0.08742353  0.44680068     0.07900
C888        C  0.35923790  0.10546518  0.43989681    -0.14300
H889        H  0.41978836  0.10769131  0.45485791     0.11800
H890        H  0.34688927  0.03085035  0.52605771     0.11800
H891        H  0.29057066  0.04844406  0.48673532     0.11800
H892        H  0.36367892  0.12505677  0.41506281     0.11800
C893        C  0.39227878  0.90131055  0.52673139    -0.14300
C894        C  0.38760276  0.93113671  0.49825838     0.07900
C895        C  0.34989281  0.94551832  0.49204143    -0.14300
C896        C  0.31844568  0.93305517  0.51616865    -0.14300
C897        C  0.32379291  0.90569198  0.54706784     0.07900
C898        C  0.36082943  0.88868130  0.55074706    -0.14300
H899        H  0.42108100  0.88970440  0.53240754     0.11800
H900        H  0.34531738  0.96885361  0.47091021     0.11800
H901        H  0.29027185  0.94659060  0.51181164     0.11800
H902        H  0.36611240  0.86726247  0.57361124     0.11800
C903        C  0.54941783  0.10593761  0.37747075    -0.14300
C904        C  0.52080487  0.07584241  0.37352434     0.07900
C905        C  0.51400653  0.06181354  0.33574987    -0.14300
C906        C  0.53667952  0.07563972  0.30356539    -0.14300
C907        C  0.56690356  0.10406045  0.30796796     0.07900
C908        C  0.57206494  0.11975093  0.34535344    -0.14300
H909        H  0.55578349  0.11770256  0.40607228     0.11800
H910        H  0.49240747  0.03896697  0.33130053     0.11800
H911        H  0.53106129  0.06307693  0.27515580     0.11800
H912        H  0.59456528  0.14165958  0.35013809     0.11800
C913        C  0.47550766  0.89739309  0.38407687    -0.14300
C914        C  0.49978754  0.93054838  0.37641365     0.07900
C915        C  0.49905222  0.94692684  0.33856154    -0.14300
C916        C  0.47295984  0.93242571  0.31037022    -0.14300
C917        C  0.44678055  0.90092411  0.31898913     0.07900
C918        C  0.44944874  0.88291172  0.35597198    -0.14300
H919        H  0.47488916  0.88391249  0.41293392     0.11800
H920        H  0.51685455  0.97245482  0.33145775     0.11800
H921        H  0.47242416  0.94701650  0.28208299     0.11800
H922        H  0.43042863  0.85844414  0.36377586     0.11800
C923        C  0.63222864  0.09013332  0.56940446    -0.14300
C924        C  0.63607643  0.08067344  0.52951124     0.07900
C925        C  0.67119907  0.08957572  0.50969460    -0.14300
C926        C  0.70324669  0.10400281  0.53036985    -0.14300
C927        C  0.70045031  0.11027202  0.57102121     0.07900
C928        C  0.66408251  0.10536733  0.58994906    -0.14300
H929        H  0.60553172  0.08276226  0.58536005     0.11800
H930        H  0.67506407  0.08171198  0.47921322     0.11800
H931        H  0.73115114  0.10730743  0.51523118     0.11800
H932        H  0.66136917  0.10938603  0.62130655     0.11800
C933        C  0.63396601  0.91582777  0.40999899    -0.14300
C934        C  0.63738740  0.92568379  0.44969640     0.07900
C935        C  0.67278936  0.91909859  0.46868512    -0.14300
C936        C  0.70536487  0.90621750  0.44734749    -0.14300
C937        C  0.70273767  0.89909820  0.40693503     0.07900
C938        C  0.66631277  0.90201052  0.38884663    -0.14300
H939        H  0.60700523  0.92153958  0.39470574     0.11800
H940        H  0.67622778  0.92738387  0.49899989     0.11800
H941        H  0.73325020  0.90409402  0.46189448     0.11800
H942        H  0.66369487  0.89701270  0.35771663     0.11800
loop_ 
_geom_bond_atom_site_label_1 
_geom_bond_atom_site_label_2 
_geom_bond_distance 
_geom_bond_site_symmetry_2 
_ccdc_geom_bond_type 
O1            C9   1.264       .  A
O1          Co21   1.976   1_565  S
O2           C10   1.280       .  A
O2          Co22   2.041   1_565  S
O3           C11   1.245       .  A
O3          Co23   1.946       .  S
O4           C12   1.255       .  A
O4          Co24   1.941       .  S
O5           C11   1.278       .  A
O5          Co22   2.085   1_565  S
O6           C12   1.296       .  A
O6          Co21   2.116   1_565  S
O7           C10   1.278       .  A
O7          Co24   1.962       .  S
O8            C9   1.268       .  A
O8          Co23   1.995       .  S
C9          C934   1.467       .  S
C10         C894   1.489       .  S
C11         C874   1.507       .  S
C12         C914   1.505       .  S
O13          C26   1.242       .  A
O13         Co21   1.942       .  S
O14          C27   1.256       .  A
O14         Co22   1.946       .  S
O15          C28   1.264       .  A
O15         Co23   1.978   1_545  S
O16          C29   1.278       .  A
O16         Co24   2.035   1_545  S
O17          C29   1.278       .  A
O17         Co22   1.961       .  S
O18          C28   1.269       .  A
O18         Co21   2.000       .  S
O19          C26   1.277       .  A
O19         Co24   2.093   1_545  S
O20          C27   1.293       .  A
O20         Co23   2.101   1_545  S
Co21         O25   2.016       .  S
Co22         O25   2.035       .  S
Co23         O25   2.022   1_565  S
Co24         O25   2.036   1_565  S
C26         C904   1.508       .  S
C27         C864   1.501       .  S
C28         C924   1.472       .  S
C29         C884   1.485       .  S
O30          C38   1.257       .  A
O30         Co50   1.948       .  S
O31          C39   1.245       .  A
O31         Co51   1.945       .  S
O32          C40   1.268       .  A
O32         Co52   1.988   1_655  S
O33          C41   1.278       .  A
O33         Co53   2.042   1_655  S
O34          C40   1.273       .  A
O34         Co51   2.008       .  S
O35          C41   1.277       .  A
O35         Co50   1.953       .  S
O36          C39   1.273       .  A
O36         Co53   2.074   1_655  S
O37          C38   1.293       .  A
O37         Co52   2.100   1_655  S
C38         C844   1.504       .  S
C39         C834   1.495       .  S
C40         C794   1.483       .  S
C41         C814   1.481       .  S
O42          C55   1.275       .  A
O42         Co50   2.041   1_455  S
O43          C56   1.264       .  A
O43         Co51   1.982   1_455  S
O44          C57   1.249       .  A
O44         Co52   1.951       .  S
O45          C58   1.261       .  A
O45         Co53   1.944       .  S
O46          C58   1.299       .  A
O46         Co51   2.112   1_455  S
O47          C57   1.276       .  A
O47         Co50   2.061   1_455  S
O48          C55   1.277       .  A
O48         Co53   1.967       .  S
O49          C56   1.271       .  A
O49         Co52   2.011       .  S
Co50         O54   2.023       .  S
Co51         O54   2.001       .  S
Co52         O54   2.009   1_455  S
Co53         O54   2.037   1_455  S
C55         C804   1.491       .  S
C56         C784   1.478       .  S
C57         C854   1.484       .  S
C58         C824   1.507       .  S
O59          C67   1.256       .  A
O59         Co79   1.943       .  S
O60          C68   1.242       .  A
O60         Co80   1.938       .  S
O61          C69   1.264       .  A
O61         Co81   1.981   1_554  S
O62          C70   1.273       .  A
O62         Co82   2.034   1_554  S
O63          C69   1.266       .  A
O63         Co80   1.993       .  S
O64          C70   1.279       .  A
O64         Co79   1.972       .  S
O65          C68   1.277       .  A
O65         Co82   2.087   1_554  S
O66          C67   1.293       .  A
O66         Co81   2.097   1_554  S
C67         C764   1.497       .  S
C68         C724   1.498       .  S
C69         C704   1.465       .  S
C70         C744   1.493       .  S
O71          C84   1.277       .  A
O71         Co79   2.041   1_556  S
O72          C85   1.267       .  A
O72         Co80   1.983   1_556  S
O73          C86   1.247       .  A
O73         Co81   1.948       .  S
O74          C87   1.260       .  A
O74         Co82   1.941       .  S
O75          C87   1.295       .  A
O75         Co80   2.093   1_556  S
O76          C86   1.279       .  A
O76         Co79   2.076   1_556  S
O77          C84   1.280       .  A
O77         Co82   1.971       .  S
O78          C85   1.272       .  A
O78         Co81   2.000       .  S
Co79         O83   2.028       .  S
Co80         O83   1.993       .  S
Co81         O83   2.009   1_556  S
Co82         O83   2.039   1_556  S
C84         C757   1.498       .  S
C85         C714   1.475       .  S
C86         C774   1.494       .  S
C87         C734   1.497       .  S
C88         C690   1.501       .  S
C88          N89   1.368       .  A
C88          N93   1.349       .  A
N89          C90   1.374       .  A
C90          N91   1.382       .  A
C90         C699   1.524       .  S
N91          C92   1.380       .  A
C92         C877   1.511       .  S
C92          N93   1.352       .  A
C94          N95   1.373       .  A
C94          N99   1.374       .  A
C94         C700   1.526       .  S
N95          C96   1.371       .  A
C96          N97   1.370       .  A
C96         C686   1.521       .  S
N97          C98   1.370       .  A
C98          N99   1.375       .  A
C98         C681   1.522       .  S
C100        C847   1.507       .  S
C100        N101   1.354       .  A
C100        N105   1.378       .  A
N101        C102   1.350       .  A
C102        C672   1.500       .  S
C102        N103   1.367       .  A
N103        C104   1.373       .  A
C104        N105   1.380       .  A
C104        C685   1.518       .  S
C106        C662   1.502       .  S
C106        N107   1.347       .  A
C106        N111   1.368       .  A
N107        C108   1.352       .  A
C108        C737   1.502       .  S
C108        N109   1.376       .  A
N109        C110   1.378       .  A
C110        N111   1.375       .  A
C110        C682   1.518       .  S
C112        N113   1.370       .  A
C112        N117   1.372       .  A
C112        C654   1.517       .  S
N113        C114   1.371       .  A
C114        N115   1.367       .  A
C114        C650   1.512       .  S
N115        C116   1.369       .  A
C116        N117   1.371       .  A
C116        C657   1.512       .  S
C118        C777   1.501       .  S
C118        N119   1.371       .  A
C118        N123   1.348       .  A
N119        C120   1.376       .  A
C120        N121   1.374       .  A
C120        C658   1.514       .  S
N121        C122   1.370       .  A
C122        C640   1.488       .  S
C122        N123   1.350       .  A
C124        C630   1.498       .  S
C124        N125   1.353       .  A
C124        N129   1.373       .  A
N125        C126   1.351       .  A
C126        C867   1.506       .  S
C126        N127   1.370       .  A
N127        C128   1.375       .  A
C128        N129   1.375       .  A
C128        C653   1.516       .  S
C130        C620   1.489       .  S
C130        N131   1.367       .  A
C130        N135   1.355       .  A
N131        C132   1.371       .  A
C132        N133   1.377       .  A
C132        C649   1.513       .  S
N133        C134   1.373       .  A
C134        C827   1.510       .  S
C134        N135   1.354       .  A
O136        C144   1.276   1_545  A
O136       Co156   2.040       .  S
O137        C145   1.265       .  A
O137       Co157   1.983       .  S
O138        C146   1.261       .  A
O138       Co158   1.941       .  S
O139        C147   1.247   1_554  A
O139       Co159   1.948       .  S
O140        C146   1.296   1_554  A
O140       Co157   2.092       .  S
O141        C147   1.279       .  A
O141       Co156   2.076       .  S
O142        C145   1.272   1_545  A
O142       Co159   2.006       .  S
O143        C144   1.277       .  A
O143       Co158   1.964       .  S
C144        C633   1.492   1_565  S
C145        C590   1.476       .  S
C146        C573   1.495       .  S
C147        C603   1.494       .  S
O148        C161   1.257       .  A
O148       Co156   1.941       .  S
O149        C162   1.246       .  A
O149       Co157   1.947   1_556  S
O150        C163   1.275   1_565  A
O150       Co158   2.038       .  S
O151        C164   1.265       .  A
O151       Co159   1.982       .  S
O152        C164   1.270   1_565  A
O152       Co157   1.999       .  S
O153        C163   1.279       .  A
O153       Co156   1.968       .  S
O154        C161   1.293   1_554  A
O154       Co159   2.099       .  S
O155        C162   1.275       .  A
O155       Co158   2.070       .  S
Co156       O160   2.026   1_546  S
Co157       O160   1.996       .  S
Co158       O160   2.027   1_556  S
Co159       O160   2.005   1_545  S
C161        C610   1.499       .  S
C162        C563   1.491       .  S
C163        C693   1.492   1_545  S
C164        C580   1.471       .  S
C165        N166   1.367       .  A
C165        N170   1.376       .  A
C165        C555   1.519       .  S
N166        C167   1.367       .  A
C167        N168   1.369       .  A
C167        C547   1.513       .  S
N168        C169   1.372       .  A
C169        N170   1.375       .  A
C169        C551   1.522       .  S
C171        C570   1.498       .  S
C171        N172   1.353       .  A
C171        N176   1.373       .  A
N172        C173   1.349       .  A
C173        C754   1.507       .  S
C173        N174   1.371       .  A
N174        C175   1.377       .  A
C175        N176   1.375       .  A
C175        C556   1.517       .  S
C177        C538   1.506       .  S
C177        N178   1.355       .  A
C177        N182   1.377       .  A
N178        C179   1.351       .  A
C179        C897   1.503       .  S
C179        N180   1.369       .  A
N180        C181   1.373       .  A
C181        N182   1.379       .  A
C181        C552   1.520       .  S
C183        C528   1.493       .  S
C183        N184   1.351       .  A
C183        N188   1.371       .  A
N184        C185   1.348       .  A
C185        C807   1.503       .  S
C185        N186   1.370       .  A
N186        C187   1.376       .  A
C187        N188   1.376       .  A
C187        C548   1.513       .  S
C189        N190   1.378       .  A
C189        N194   1.372       .  A
C189        C519   1.517       .  S
N190        C191   1.376       .  A
C191        N192   1.361       .  A
C191        C515   1.509       .  S
N192        C193   1.359       .  A
C193        N194   1.366       .  A
C193        C523   1.502       .  S
C195        C506   1.489       .  S
C195        N196   1.368       .  A
C195        N200   1.359       .  A
N196        C197   1.369       .  A
C197        N198   1.369       .  A
C197        C524   1.505       .  S
N198        C199   1.368       .  A
C199        C837   1.502       .  S
C199        N200   1.356       .  A
C201        C499   1.499       .  S
C201        N202   1.353       .  A
C201        N206   1.373       .  A
N202        C203   1.349       .  A
C203        C727   1.504       .  S
C203        N204   1.371       .  A
N204        C205   1.375       .  A
C205        N206   1.376       .  A
C205        C520   1.518       .  S
C207        C583   1.479       .  S
C207        N208   1.359       .  A
C207        N212   1.352       .  A
N208        C209   1.364       .  A
C209        N210   1.380       .  A
C209        C516   1.509       .  S
N210        C211   1.379       .  A
C211        C907   1.511       .  S
C211        N212   1.355       .  A
O213        C221   1.239       .  A
O213       Co233   1.947       .  S
O214        C222   1.239       .  A
O214       Co234   1.946       .  S
O215        C223   1.238       .  A
O215       Co235   1.937       .  S
O216        C224   1.241       .  A
O216       Co236   1.949       .  S
O217        C223   1.270   1_455  A
O217       Co234   2.078       .  S
O218        C224   1.272   1_655  A
O218       Co233   2.068       .  S
O219        C222   1.268   1_556  A
O219       Co236   2.062       .  S
O220        C221   1.270   1_554  A
O220       Co235   2.080       .  S
C221        C665   1.496       .  S
C222        C486   1.489       .  S
C223        C466   1.484       .  S
C224        C531   1.493       .  S
O225        C238   1.241   1_655  A
O225       Co233   1.947       .  S
O226        C239   1.239       .  A
O226       Co234   1.951       .  S
O227        C240   1.237       .  A
O227       Co235   1.945       .  S
O228        C241   1.236       .  A
O228       Co236   1.939       .  S
O229        C241   1.271   1_554  A
O229       Co234   2.074       .  S
O230        C240   1.271   1_556  A
O230       Co233   2.074       .  S
O231        C238   1.266       .  A
O231       Co236   2.058       .  S
O232        C239   1.270   1_655  A
O232       Co235   2.071       .  S
Co233       O237   2.130   1_656  S
Co234       O237   2.139       .  S
Co235       O237   2.131   1_655  S
Co236       O237   2.139   1_556  S
C238        C456   1.479   1_455  S
C239        C476   1.493       .  S
C240        C496   1.493       .  S
C241        C643   1.492       .  S
C242        C442   1.497       .  S
C242        N243   1.353       .  A
C242        N247   1.373       .  A
N243        C244   1.349       .  A
C244        C887   1.494       .  S
C244        N245   1.365       .  A
N245        C246   1.369       .  A
C246        N247   1.374       .  A
C246        C451   1.504       .  S
C248        N249   1.368       .  A
C248        N253   1.368       .  A
C248        C452   1.507       .  S
N249        C250   1.367       .  A
C250        N251   1.366       .  A
C250        C437   1.506       .  S
N251        C252   1.367       .  A
C252        N253   1.368       .  A
C252        C433   1.507       .  S
C254        C479   1.499       .  S
C254        N255   1.353       .  A
C254        N259   1.373       .  A
N255        C256   1.350       .  A
C256        C787   1.492       .  S
C256        N257   1.364       .  A
N257        C258   1.371       .  A
C258        N259   1.376       .  A
C258        C438   1.504       .  S
C260        C600   1.503       .  S
C260        N261   1.375       .  A
C260        N265   1.354       .  A
N261        C262   1.375       .  A
C262        N263   1.363       .  A
C262        C434   1.497       .  S
N263        C264   1.359       .  A
C264        C707   1.481       .  S
C264        N265   1.353       .  A
C266        N267   1.368       .  A
C266        N271   1.367       .  A
C266        C429   1.506       .  S
N267        C268   1.368       .  A
C268        N269   1.367       .  A
C268        C422   1.501       .  S
N269        C270   1.365       .  A
C270        N271   1.366       .  A
C270        C425   1.502       .  S
C272        C817   1.492       .  S
C272        N273   1.351       .  A
C272        N277   1.373       .  A
N273        C274   1.348       .  A
C274        C459   1.488       .  S
C274        N275   1.362       .  A
N275        C276   1.366       .  A
C276        N277   1.375       .  A
C276        C430   1.499       .  S
C278        C717   1.480       .  S
C278        N279   1.364       .  A
C278        N283   1.355       .  A
N279        C280   1.367       .  A
C280        N281   1.372       .  A
C280        C426   1.503       .  S
N281        C282   1.370       .  A
C282        C613   1.502       .  S
C282        N283   1.355       .  A
C284        C927   1.477       .  S
C284        N285   1.363       .  A
C284        N289   1.352       .  A
N285        C286   1.368       .  A
C286        N287   1.375       .  A
C286        C421   1.504       .  S
N287        C288   1.372       .  A
C288        C415   1.503       .  S
C288        N289   1.352       .  A
C290        N291   1.373       .  A
C290        N295   1.361       .  A
C290        C407   1.505       .  S
N291        C292   1.372       .  A
C292        N293   1.372       .  A
C292        C399   1.519       .  S
N293        C294   1.370       .  A
C294        N295   1.362       .  A
C294        C403   1.500       .  S
C296        C937   1.475       .  S
C296        N297   1.358       .  A
C296        N301   1.352       .  A
N297        C298   1.363       .  A
C298        N299   1.381       .  A
C298        C408   1.506       .  S
N299        C300   1.377       .  A
C300        C390   1.512       .  S
C300        N301   1.354       .  A
C302        C469   1.495       .  S
C302        N303   1.365       .  A
C302        N307   1.353       .  A
N303        C304   1.367       .  A
C304        N305   1.371       .  A
C304        C404   1.502       .  S
N305        C306   1.369       .  A
C306        C797   1.481       .  S
C306        N307   1.355       .  A
C308        C560   1.500       .  S
C308        N309   1.369       .  A
C308        N313   1.348       .  A
N309        C310   1.373       .  A
C310        N311   1.377       .  A
C310        C400   1.517       .  S
N311        C312   1.375       .  A
C312        C747   1.496       .  S
C312        N313   1.352       .  A
C314        N315   1.371       .  A
C314        N319   1.370       .  A
C314        C381   1.514       .  S
N315        C316   1.371       .  A
C316        N317   1.366       .  A
C316        C377   1.512       .  S
N317        C318   1.367       .  A
C318        N319   1.367       .  A
C318        C385   1.506       .  S
C320        C917   1.511       .  S
C320        N321   1.355       .  A
C320        N325   1.373       .  A
N321        C322   1.356       .  A
C322        C593   1.485       .  S
C322        N323   1.364       .  A
N323        C324   1.368       .  A
C324        N325   1.376       .  A
C324        C386   1.509       .  S
C326        C857   1.491       .  S
C326        N327   1.365       .  A
C326        N331   1.345       .  A
N327        C328   1.371       .  A
C328        N329   1.379       .  A
C328        C382   1.510       .  S
N329        C330   1.376       .  A
C330        C368   1.496       .  S
C330        N331   1.348       .  A
C332        C767   1.502       .  S
C332        N333   1.370       .  A
C332        N337   1.350       .  A
N333        C334   1.375       .  A
C334        N335   1.372       .  A
C334        C378   1.510       .  S
N335        C336   1.370       .  A
C336        C489   1.489       .  S
C336        N337   1.352       .  A
O338        C346   1.277   1_655  A
O338       Co358   2.041       .  S
O339        C347   1.267       .  A
O339       Co359   1.988       .  S
O340        C348   1.263       .  A
O340       Co360   1.950       .  S
O341        C349   1.246   1_545  A
O341       Co361   1.948       .  S
O342        C348   1.295   1_545  A
O342       Co359   2.095       .  S
O343        C349   1.277       .  A
O343       Co358   2.078       .  S
O344        C347   1.274       .  A
O344       Co361   2.007   1_455  S
O345        C346   1.278       .  A
O345       Co360   1.966       .  S
C346        C675   1.494   1_455  S
C347        C623   1.481       .  S
C348        C541   1.505       .  S
C349        C412   1.494   1_565  S
O350        C363   1.255   1_565  A
O350       Co358   1.943       .  S
O351        C364   1.249       .  A
O351       Co359   1.953   1_565  S
O352        C365   1.273   1_455  A
O352       Co360   2.036       .  S
O353        C366   1.262       .  A
O353       Co361   1.975       .  S
O354        C366   1.272   1_455  A
O354       Co359   2.012       .  S
O355        C365   1.278       .  A
O355       Co358   1.969       .  S
O356        C363   1.296       .  A
O356       Co361   2.114       .  S
O357        C364   1.275       .  A
O357       Co360   2.060       .  S
Co358       O362   2.034   1_665  S
Co359       O362   2.009       .  S
Co360       O362   2.035   1_565  S
Co361       O362   2.012   1_655  S
C363        C393   1.508   1_545  S
C364        C445   1.487       .  S
C365        C371   1.491   1_655  S
C366        C509   1.476       .  S
C367        C368   1.419       .  A
C367        C372   1.404   1_455  A
C367        H373   1.085       .  S
C368        C369   1.399       .  A
C369        C370   1.405       .  A
C369        H374   1.082       .  S
C370        C371   1.418       .  A
C370        H375   1.085       .  S
C371        C372   1.398   1_455  A
C372        H376   1.082       .  S
C377        C378   1.361       .  D
C377        H379   1.086       .  S
C378        H380   1.086       .  S
C381        C382   1.357       .  D
C381        H383   1.086       .  S
C382        H384   1.086       .  S
C385        C386   1.359       .  D
C385        H387   1.086       .  S
C386        H388   1.085       .  S
C389        C390   1.403       .  A
C389        C394   1.411       .  A
C389        H395   1.083       .  S
C390        C391   1.419       .  A
C391        C392   1.409       .  A
C391        H396   1.082       .  S
C392        C393   1.402       .  A
C392        H397   1.083   1_565  S
C393        C394   1.420       .  A
C394        H398   1.083       .  S
C399        C400   1.361       .  D
C399        H401   1.086       .  S
C400        H402   1.086       .  S
C403        C404   1.351       .  D
C403        H405   1.086       .  S
C404        H406   1.086       .  S
C407        C408   1.365       .  D
C407        H409   1.086       .  S
C408        H410   1.085       .  S
C411        C412   1.401       .  A
C411        C416   1.407       .  A
C411        H417   1.082   1_545  S
C412        C413   1.415       .  A
C413        C414   1.405       .  A
C413        H418   1.084       .  S
C414        C415   1.402       .  A
C414        H419   1.082       .  S
C415        C416   1.418       .  A
C416        H420   1.083       .  S
C421        C422   1.357       .  D
C421        H423   1.086       .  S
C422        H424   1.086       .  S
C425        C426   1.357       .  D
C425        H427   1.086       .  S
C426        H428   1.086       .  S
C429        C430   1.354       .  D
C429        H431   1.086       .  S
C430        H432   1.086       .  S
C433        C434   1.354       .  D
C433        H435   1.086       .  S
C434        H436   1.085       .  S
C437        C438   1.355       .  D
C437        H439   1.087       .  S
C438        H440   1.087       .  S
C441        C442   1.402       .  A
C441        C446   1.404       .  A
C441        H447   1.083       .  S
C442        C443   1.417       .  A
C443        C444   1.401   1_545  A
C443        H448   1.083       .  S
C444        C445   1.398       .  A
C444        H449   1.083       .  S
C445        C446   1.415   1_565  A
C446        H450   1.083       .  S
C451        C452   1.355       .  D
C451        H453   1.087       .  S
C452        H454   1.087       .  S
C455        C456   1.410       .  A
C455        C460   1.399       .  A
C455        H461   1.083       .  S
C456        C457   1.400       .  A
C457        C458   1.400       .  A
C457        H462   1.084   1_655  S
C458        C459   1.414       .  A
C458        H463   1.083       .  S
C459        C460   1.401       .  A
C460        H464   1.083       .  S
C465        C466   1.403       .  A
C465        C470   1.406       .  A
C465        H471   1.083       .  S
C466        C467   1.410       .  A
C467        C468   1.400       .  A
C467        H472   1.083       .  S
C468        C469   1.403       .  A
C468        H473   1.083       .  S
C469        C470   1.414       .  A
C470        H474   1.083       .  S
C475        C476   1.399       .  A
C475        C480   1.401       .  A
C475        H481   1.083   1_455  S
C476        C477   1.416       .  A
C477        C478   1.409       .  A
C477        H482   1.083       .  S
C478        C479   1.403       .  A
C478        H483   1.083       .  S
C479        C480   1.415       .  A
C480        H484   1.082       .  S
C485        C486   1.400       .  A
C485        C490   1.401       .  A
C485        H491   1.083   1_554  S
C486        C487   1.415       .  A
C487        C488   1.403       .  A
C487        H492   1.083       .  S
C488        C489   1.400       .  A
C488        H493   1.083       .  S
C489        C490   1.414       .  A
C490        H494   1.083       .  S
C495        C496   1.400       .  A
C495        C500   1.400       .  A
C495        H501   1.084   1_554  S
C496        C497   1.416       .  A
C497        C498   1.409       .  A
C497        H502   1.082       .  S
C498        C499   1.403       .  A
C498        H503   1.084       .  S
C499        C500   1.416       .  A
C500        H504   1.082       .  S
C505        C506   1.409       .  A
C505        C510   1.400       .  A
C505        H511   1.083       .  S
C506        C507   1.405       .  A
C507        C508   1.407       .  A
C507        H512   1.083       .  S
C508        C509   1.408       .  A
C508        H513   1.083       .  S
C509        C510   1.401       .  A
C510        H514   1.084   1_655  S
C515        C516   1.350       .  D
C515        H517   1.087       .  S
C516        H518   1.087       .  S
C519        C520   1.360       .  D
C519        H521   1.086       .  S
C520        H522   1.086       .  S
C523        C524   1.353       .  D
C523        H525   1.086       .  S
C524        H526   1.086       .  S
C527        C528   1.402       .  A
C527        C532   1.409       .  A
C527        H533   1.083       .  S
C528        C529   1.413       .  A
C529        C530   1.399       .  A
C529        H534   1.083       .  S
C530        C531   1.400       .  A
C530        H535   1.083   1_455  S
C531        C532   1.417       .  A
C532        H536   1.083       .  S
C537        C538   1.403       .  A
C537        C542   1.412       .  A
C537        H543   1.082       .  S
C538        C539   1.417       .  A
C539        C540   1.405       .  A
C539        H544   1.083       .  S
C540        C541   1.403       .  A
C540        H545   1.083   1_565  S
C541        C542   1.418       .  A
C542        H546   1.083       .  S
C547        C548   1.359       .  D
C547        H549   1.086       .  S
C548        H550   1.086       .  S
C551        C552   1.362       .  D
C551        H553   1.086       .  S
C552        H554   1.086       .  S
C555        C556   1.365       .  D
C555        H557   1.086       .  S
C556        H558   1.086       .  S
C559        C560   1.401       .  A
C559        C564   1.403       .  A
C559        H565   1.083       .  S
C560        C561   1.418       .  A
C561        C562   1.405   1_554  A
C561        H566   1.082       .  S
C562        C563   1.400       .  A
C562        H567   1.083       .  S
C563        C564   1.414   1_556  A
C564        H568   1.083       .  S
C569        C570   1.401       .  A
C569        C574   1.407       .  A
C569        H575   1.082       .  S
C570        C571   1.416       .  A
C571        C572   1.401       .  A
C571        H576   1.083       .  S
C572        C573   1.400       .  A
C572        H577   1.083   1_556  S
C573        C574   1.418       .  A
C574        H578   1.084       .  S
C579        C580   1.400       .  A
C579        C584   1.400       .  A
C579        H585   1.084   1_545  S
C580        C581   1.406       .  A
C581        C582   1.400       .  A
C581        H586   1.082       .  S
C582        C583   1.402       .  A
C582        H587   1.084       .  S
C583        C584   1.408       .  A
C584        H588   1.083       .  S
C589        C590   1.408       .  A
C589        C594   1.405       .  A
C589        H595   1.084       .  S
C590        C591   1.400       .  A
C591        C592   1.400       .  A
C591        H596   1.083   1_565  S
C592        C593   1.408       .  A
C592        H597   1.083       .  S
C593        C594   1.404       .  A
C594        H598   1.083       .  S
C599        C600   1.401       .  A
C599        C604   1.404       .  A
C599        H605   1.083       .  S
C600        C601   1.419       .  A
C601        C602   1.407       .  A
C601        H606   1.083       .  S
C602        C603   1.400   1_554  A
C602        H607   1.082   1_554  S
C603        C604   1.415   1_556  A
C604        H608   1.083       .  S
C609        C610   1.403       .  A
C609        C614   1.408       .  A
C609        H615   1.083   1_556  S
C610        C611   1.416       .  A
C611        C612   1.404       .  A
C611        H616   1.083       .  S
C612        C613   1.402       .  A
C612        H617   1.083       .  S
C613        C614   1.416       .  A
C614        H618   1.082       .  S
C619        C620   1.411       .  A
C619        C624   1.402       .  A
C619        H625   1.083       .  S
C620        C621   1.404       .  A
C621        C622   1.407       .  A
C621        H626   1.083       .  S
C622        C623   1.409       .  A
C622        H627   1.083       .  S
C623        C624   1.401       .  A
C624        H628   1.084   1_455  S
C629        C630   1.401       .  A
C629        C634   1.405       .  A
C629        H635   1.084       .  S
C630        C631   1.417       .  A
C631        C632   1.405   1_545  A
C631        H636   1.082       .  S
C632        C633   1.400   1_565  A
C632        H637   1.084       .  S
C633        C634   1.416       .  A
C634        H638   1.083       .  S
C639        C640   1.399       .  A
C639        C644   1.404       .  A
C639        H645   1.083       .  S
C640        C641   1.414       .  A
C641        C642   1.402       .  A
C641        H646   1.084       .  S
C642        C643   1.400       .  A
C642        H647   1.082   1_556  S
C643        C644   1.417       .  A
C644        H648   1.084       .  S
C649        C650   1.362       .  D
C649        H651   1.086       .  S
C650        H652   1.086       .  S
C653        C654   1.363       .  D
C653        H655   1.086       .  S
C654        H656   1.086       .  S
C657        C658   1.360       .  D
C657        H659   1.086       .  S
C658        H660   1.086       .  S
C661        C662   1.418       .  A
C661        C666   1.406       .  A
C661        H667   1.083       .  S
C662        C663   1.402       .  A
C663        C664   1.405       .  A
C663        H668   1.082       .  S
C664        C665   1.415       .  A
C664        H669   1.083       .  S
C665        C666   1.402       .  A
C666        H670   1.083   1_556  S
C671        C672   1.402       .  A
C671        C676   1.405       .  A
C671        H677   1.082       .  S
C672        C673   1.416       .  A
C673        C674   1.407   1_655  A
C673        H678   1.083       .  S
C674        C675   1.401   1_455  A
C674        H679   1.082       .  S
C675        C676   1.415       .  A
C676        H680   1.084       .  S
C681        C682   1.364       .  D
C681        H683   1.086       .  S
C682        H684   1.086       .  S
C685        C686   1.362       .  D
C685        H687   1.086       .  S
C686        H688   1.086       .  S
C689        C690   1.401       .  A
C689        C694   1.405       .  A
C689        H695   1.084       .  S
C690        C691   1.418       .  A
C691        C692   1.407   1_565  A
C691        H696   1.082       .  S
C692        C693   1.399   1_545  A
C692        H697   1.084       .  S
C693        C694   1.417       .  A
C694        H698   1.083       .  S
C699        C700   1.364       .  D
C699        H701   1.086       .  S
C700        H702   1.086       .  S
C703        C704   1.404       .  A
C703        C708   1.402       .  A
C703        H709   1.084       .  S
C704        C705   1.400       .  A
C705        C706   1.397       .  A
C705        H710   1.083       .  S
C706        C707   1.407       .  A
C706        H711   1.084       .  S
C707        C708   1.405       .  A
C708        H712   1.082       .  S
C713        C714   1.407       .  A
C713        C718   1.403       .  A
C713        H719   1.084       .  S
C714        C715   1.401       .  A
C715        C716   1.401       .  A
C715        H720   1.083       .  S
C716        C717   1.408       .  A
C716        H721   1.083       .  S
C717        C718   1.402       .  A
C718        H722   1.083       .  S
C723        C724   1.401       .  A
C723        C728   1.409       .  A
C723        H729   1.083       .  S
C724        C725   1.418       .  A
C725        C726   1.404       .  A
C725        H730   1.083       .  S
C726        C727   1.400       .  A
C726        H731   1.083       .  S
C727        C728   1.420       .  A
C728        H732   1.082       .  S
C733        C734   1.418       .  A
C733        C738   1.410       .  A
C733        H739   1.083       .  S
C734        C735   1.399       .  A
C735        C736   1.400       .  A
C735        H740   1.083       .  S
C736        C737   1.417       .  A
C736        H741   1.083       .  S
C737        C738   1.402       .  A
C738        H742   1.083       .  S
C743        C744   1.418       .  A
C743        C748   1.404       .  A
C743        H749   1.084       .  S
C744        C745   1.399       .  A
C745        C746   1.406       .  A
C745        H750   1.082       .  S
C746        C747   1.418       .  A
C746        H751   1.084       .  S
C747        C748   1.399       .  A
C748        H752   1.083       .  S
C753        C754   1.419       .  A
C753        C758   1.408       .  A
C753        H759   1.082       .  S
C754        C755   1.403       .  A
C755        C756   1.409       .  A
C755        H760   1.083       .  S
C756        C757   1.416       .  A
C756        H761   1.083       .  S
C757        C758   1.401       .  A
C758        H762   1.084       .  S
C763        C764   1.401       .  A
C763        C768   1.405       .  A
C763        H769   1.083       .  S
C764        C765   1.417       .  A
C765        C766   1.406       .  A
C765        H770   1.083       .  S
C766        C767   1.402       .  A
C766        H771   1.083       .  S
C767        C768   1.417       .  A
C768        H772   1.083       .  S
C773        C774   1.399       .  A
C773        C778   1.406       .  A
C773        H779   1.083       .  S
C774        C775   1.416       .  A
C775        C776   1.404       .  A
C775        H780   1.083       .  S
C776        C777   1.401       .  A
C776        H781   1.083       .  S
C777        C778   1.419       .  A
C778        H782   1.082       .  S
C783        C784   1.400       .  A
C783        C788   1.400       .  A
C783        H789   1.083       .  S
C784        C785   1.408       .  A
C785        C786   1.408       .  A
C785        H790   1.084       .  S
C786        C787   1.405       .  A
C786        H791   1.082       .  S
C787        C788   1.411       .  A
C788        H792   1.084       .  S
C793        C794   1.402       .  A
C793        C798   1.405       .  A
C793        H799   1.083       .  S
C794        C795   1.409       .  A
C795        C796   1.403       .  A
C795        H800   1.083       .  S
C796        C797   1.402       .  A
C796        H801   1.083       .  S
C797        C798   1.409       .  A
C798        H802   1.083       .  S
C803        C804   1.399       .  A
C803        C808   1.406       .  A
C803        H809   1.084       .  S
C804        C805   1.415       .  A
C805        C806   1.407       .  A
C805        H810   1.083       .  S
C806        C807   1.403       .  A
C806        H811   1.083       .  S
C807        C808   1.419       .  A
C808        H812   1.083       .  S
C813        C814   1.414       .  A
C813        C818   1.403       .  A
C813        H819   1.083       .  S
C814        C815   1.397       .  A
C815        C816   1.401       .  A
C815        H820   1.084       .  S
C816        C817   1.416       .  A
C816        H821   1.083       .  S
C817        C818   1.400       .  A
C818        H822   1.083       .  S
C823        C824   1.402       .  A
C823        C828   1.408       .  A
C823        H829   1.083       .  S
C824        C825   1.419       .  A
C825        C826   1.410       .  A
C825        H830   1.083       .  S
C826        C827   1.404       .  A
C826        H831   1.083       .  S
C827        C828   1.417       .  A
C828        H832   1.082       .  S
C833        C834   1.412       .  A
C833        C838   1.402       .  A
C833        H839   1.084       .  S
C834        C835   1.404       .  A
C835        C836   1.411       .  A
C835        H840   1.081       .  S
C836        C837   1.416       .  A
C836        H841   1.083       .  S
C837        C838   1.403       .  A
C838        H842   1.082       .  S
C843        C844   1.419       .  A
C843        C848   1.412       .  A
C843        H849   1.082       .  S
C844        C845   1.401       .  A
C845        C846   1.405       .  A
C845        H850   1.083       .  S
C846        C847   1.418       .  A
C846        H851   1.082       .  S
C847        C848   1.403       .  A
C848        H852   1.083       .  S
C853        C854   1.398       .  A
C853        C858   1.400       .  A
C853        H859   1.084       .  S
C854        C855   1.414       .  A
C855        C856   1.400       .  A
C855        H860   1.082       .  S
C856        C857   1.400       .  A
C856        H861   1.084       .  S
C857        C858   1.417       .  A
C858        H862   1.082       .  S
C863        C864   1.417       .  A
C863        C868   1.408       .  A
C863        H869   1.082       .  S
C864        C865   1.402       .  A
C865        C866   1.407       .  A
C865        H870   1.083       .  S
C866        C867   1.417       .  A
C866        H871   1.082       .  S
C867        C868   1.403       .  A
C868        H872   1.083       .  S
C873        C874   1.421       .  A
C873        C878   1.412       .  A
C873        H879   1.083       .  S
C874        C875   1.400       .  A
C875        C876   1.408       .  A
C875        H880   1.082       .  S
C876        C877   1.421       .  A
C876        H881   1.083       .  S
C877        C878   1.402       .  A
C878        H882   1.082       .  S
C883        C884   1.412       .  A
C883        C888   1.402       .  A
C883        H889   1.083       .  S
C884        C885   1.401       .  A
C885        C886   1.403       .  A
C885        H890   1.083       .  S
C886        C887   1.415       .  A
C886        H891   1.083       .  S
C887        C888   1.402       .  A
C888        H892   1.083       .  S
C893        C894   1.412       .  A
C893        C898   1.405       .  A
C893        H899   1.084       .  S
C894        C895   1.401       .  A
C895        C896   1.406       .  A
C895        H900   1.083       .  S
C896        C897   1.417       .  A
C896        H901   1.083       .  S
C897        C898   1.404       .  A
C898        H902   1.082       .  S
C903        C904   1.420       .  A
C903        C908   1.409       .  A
C903        H909   1.083       .  S
C904        C905   1.401       .  A
C905        C906   1.411       .  A
C905        H910   1.082       .  S
C906        C907   1.421       .  A
C906        H911   1.083       .  S
C907        C908   1.401       .  A
C908        H912   1.083       .  S
C913        C914   1.417       .  A
C913        C918   1.408       .  A
C913        H919   1.083       .  S
C914        C915   1.404       .  A
C915        C916   1.411       .  A
C915        H920   1.081       .  S
C916        C917   1.418       .  A
C916        H921   1.083       .  S
C917        C918   1.404       .  A
C918        H922   1.082       .  S
C923        C924   1.407       .  A
C923        C928   1.402       .  A
C923        H929   1.083       .  S
C924        C925   1.400       .  A
C925        C926   1.400       .  A
C925        H930   1.084       .  S
C926        C927   1.408       .  A
C926        H931   1.083       .  S
C927        C928   1.401       .  A
C928        H932   1.083       .  S
C933        C934   1.406       .  A
C933        C938   1.400       .  A
C933        H939   1.084       .  S
C934        C935   1.400       .  A
C935        C936   1.398       .  A
C935        H940   1.083       .  S
C936        C937   1.407       .  A
C936        H941   1.084       .  S
C937        C938   1.402       .  A
C938        H942   1.083       .  S
