geometry optimzed in LAMMPS
_audit_creation_date              2020-11-30 
_audit_creation_method            'lammps2cif' 
_symmetry_space_group_name_H-M    'P1' 
_symmetry_Int_Tables_number       1 
_symmetry_cell_setting            triclinic 
loop_ 
_symmetry_equiv_pos_as_xyz 
  x,y,z 
_cell_length_a                    66.27467054 
_cell_length_b                    65.42623753274356 
_cell_length_c                    65.35285593675792 
_cell_angle_alpha                 90.109862576422 
_cell_angle_beta                  90.62578695755853 
_cell_angle_gamma                 90.17687521132146 
loop_ 
_atom_site_label 
_atom_site_type_symbol 
_atom_site_fract_x 
_atom_site_fract_y 
_atom_site_fract_z 
_atom_site_charge 
O1          O  0.51486419  0.47491062  0.45046990    -0.78400
C2          C  0.46110792  0.51724624  0.45213556     0.82700
O3          O  0.52808700  0.53137205  0.49801569    -0.79500
O4          O  0.45818336  0.51476226  0.51830183    -0.81000
O5          O  0.47500973  0.44909523  0.50903955    -0.80800
O6          O  0.51164362  0.44937268  0.47259285    -0.79400
Zn7        Zn  0.50207440  0.49928418  0.46452830     1.55700
O8          O  0.44889544  0.46942449  0.50261728    -0.80800
Cd9        Cd  0.49945905  0.46408695  0.49720263     1.59700
Cd10       Cd  0.50843024  0.51105978  0.51298934     1.59600
O11         O  0.52074393  0.46177894  0.51945870    -0.80800
O12         O  0.49376623  0.49318212  0.49205730    -1.91300
Cd13       Cd  0.46396431  0.49614059  0.49404088     1.59900
O14         O  0.52548307  0.49266892  0.53318581    -0.80700
O15         O  0.45260382  0.51111698  0.46847030    -0.79400
C16         C  0.53276588  0.53145277  0.47909191     0.83200
C17         C  0.51812741  0.45644493  0.45577770     0.82800
O18         O  0.47944517  0.51285176  0.44825481    -0.78300
C19         C  0.45629821  0.45312915  0.51032487     0.83600
O20         O  0.52412075  0.51976863  0.46613039    -0.78400
C21         C  0.52888660  0.47344623  0.53272219     0.83700
C22         C  0.46819031  0.52569967  0.53092243     0.84100
O23         O  0.48741733  0.52707848  0.53052142    -0.80900
O24         O  0.48235088  0.20929140  0.22286538    -0.78400
C25         C  0.53375204  0.20700010  0.26793413     0.82700
O26         O  0.46662469  0.25013134  0.28236883    -0.79500
O27         O  0.53501924  0.27365166  0.27422349    -0.81000
O28         O  0.52799935  0.26555861  0.20411851    -0.80800
O29         O  0.48817756  0.23339429  0.19970700    -0.79400
Zn30       Zn  0.49391694  0.22065858  0.24914928     1.55700
O31         O  0.55006335  0.26146431  0.22952797    -0.80800
Cd32       Cd  0.50134442  0.25602491  0.21687484     1.59700
Cd33       Cd  0.48599943  0.26709239  0.26376923     1.59600
O34         O  0.48270602  0.28019832  0.21438417    -0.80800
O35         O  0.50295184  0.24851882  0.24608604    -1.91300
Cd36       Cd  0.53193697  0.25110380  0.25308857     1.59900
O37         O  0.46898648  0.28615490  0.24491049    -0.80700
O38         O  0.54221100  0.22436197  0.26569579    -0.79400
C39         C  0.46302992  0.23096337  0.28200105     0.83200
C40         C  0.48068499  0.21622446  0.20471679     0.82800
O41         O  0.51601222  0.20334061  0.26111073    -0.78300
C42         C  0.54576363  0.26738248  0.21145123     0.83600
O43         O  0.47192174  0.21897932  0.26975209    -0.78400
C44         C  0.47064158  0.28984141  0.22583294     0.83700
C45         C  0.52375874  0.28603808  0.28376518     0.84100
O46         O  0.50454966  0.28559551  0.28216629    -0.80900
C47         C  0.78964389  0.76958176  0.78582413     0.80400
N48         N  0.77414874  0.77946907  0.79508971    -0.77900
C49         C  0.76700499  0.79742534  0.78737053     0.82800
N50         N  0.77568731  0.80547430  0.77039858    -0.77900
C51         C  0.79120142  0.79581146  0.76107753     0.82900
N52         N  0.79800020  0.77789944  0.76889047    -0.79600
C53         C  0.77165251  0.95969012  0.94937115     0.80400
N54         N  0.78056837  0.97619989  0.94073468    -0.77900
C55         C  0.79701186  0.98510964  0.94961967     0.82800
N56         N  0.80442560  0.97738938  0.96746619    -0.77900
C57         C  0.79557856  0.96089338  0.97632921     0.82900
N58         N  0.77927125  0.95210083  0.96711749    -0.79600
C59         C  0.95216297  0.80018219  0.98310842     0.80400
N60         N  0.94180081  0.78478055  0.97399295    -0.77900
C61         C  0.94906193  0.77498312  0.95738712     0.82800
N62         N  0.96723665  0.78077583  0.94970056    -0.77900
C63         C  0.97791321  0.79631213  0.95870913     0.82900
N64         N  0.97019131  0.80593215  0.97536101    -0.79600
C65         C  0.95572117  0.95419404  0.76236224     0.80400
N66         N  0.96992516  0.94334547  0.77259899    -0.77900
C67         C  0.97774035  0.95003570  0.79067631     0.82800
N68         N  0.97115451  0.96804955  0.79869556    -0.77900
C69         C  0.95674341  0.97914193  0.78859898     0.82900
N70         N  0.94913284  0.97201290  0.77050714    -0.79600
N71         N  0.07560656  0.86371467  0.86937320    -0.36500
N72         N  0.10722443  0.84320843  0.89281741    -0.57000
N73         N  0.13755374  0.86723014  0.87184517    -0.36500
N74         N  0.10584192  0.89001033  0.85086390    -0.57000
C75         C  0.06443765  0.85250171  0.88245460     0.27100
C76         C  0.06368862  0.87893655  0.86215548     0.27100
C77         C  0.14862767  0.86015495  0.88779595     0.27100
C78         C  0.14810396  0.88268556  0.86342427     0.27100
C79         C  0.09165969  0.83075700  0.89751106     0.35700
C80         C  0.12404003  0.83452803  0.90073854     0.35700
C81         C  0.08923599  0.89712410  0.84113651     0.35700
C82         C  0.12181806  0.89662117  0.84006360     0.35700
C83         C  0.04502260  0.86034063  0.88310397    -0.21800
C84         C  0.04461365  0.87709864  0.87048799    -0.21800
C85         C  0.16645922  0.87125857  0.88943830    -0.21800
C86         C  0.16625369  0.88528872  0.87385997    -0.21800
C87         C  0.09859549  0.81410043  0.90858700    -0.22800
C88         C  0.11912472  0.81650993  0.91066432    -0.22800
C89         C  0.09468375  0.90861840  0.82426609    -0.22800
C90         C  0.11537343  0.90817333  0.82349347    -0.22800
C91         C  0.07112499  0.83525533  0.89369672    -0.18200
C92         C  0.06926171  0.89406885  0.84776055    -0.18200
C93         C  0.14211983  0.89386051  0.84601705    -0.18200
C94         C  0.14352385  0.84340037  0.90034696    -0.18200
H95         H  0.03245262  0.85476249  0.89195119     0.14700
H96         H  0.03166819  0.88680175  0.86777803     0.14700
H97         H  0.17849207  0.86939313  0.90059818     0.14700
H98         H  0.17806885  0.89626138  0.87075842     0.14700
H99         H  0.08973245  0.80176078  0.91491518     0.13000
H100        H  0.12923722  0.80629345  0.91874900     0.13000
H101        H  0.08478293  0.91644897  0.81360940     0.13000
H102        H  0.12461446  0.91587031  0.81231497     0.13000
H103        H  0.09028991  0.86061026  0.86510627     0.26300
H104        H  0.12411280  0.86120385  0.86617611     0.26300
N105        N  0.85901041  0.87091376  0.07856514    -0.36500
N106        N  0.88695167  0.85515591  0.10969029    -0.57000
N107        N  0.86703780  0.87963739  0.14060708    -0.36500
N108        N  0.84123202  0.89765821  0.10896430    -0.57000
C109        C  0.87249120  0.86120572  0.06662854     0.27100
C110        C  0.84821399  0.88354209  0.06631063     0.27100
C111        C  0.88326725  0.87300520  0.15135184     0.27100
C112        C  0.85950409  0.89578947  0.15087145     0.27100
C113        C  0.89223577  0.84310720  0.09385546     0.35700
C114        C  0.89617627  0.84742908  0.12649164     0.35700
C115        C  0.82872602  0.90183515  0.09308496     0.35700
C116        C  0.83313357  0.90657179  0.12557593     0.35700
C117        C  0.86986199  0.86732420  0.04646057    -0.21800
C118        C  0.85456442  0.88140480  0.04625820    -0.21800
C119        C  0.88582371  0.88479033  0.16884639    -0.21800
C120        C  0.87089466  0.89923641  0.16849464    -0.21800
C121        C  0.90508625  0.82777898  0.10057070    -0.22800
C122        C  0.90755192  0.83049759  0.12128669    -0.22800
C123        C  0.81266612  0.91360312  0.09956264    -0.22800
C124        C  0.81539414  0.91652017  0.12019890    -0.22800
C125        C  0.88677543  0.84656124  0.07322279    -0.18200
C126        C  0.83254318  0.89670779  0.07254928    -0.18200
C127        C  0.84231217  0.90721096  0.14517806    -0.18200
C128        C  0.89557814  0.85628217  0.14618773    -0.18200
H129        H  0.87816352  0.86225706  0.03322277     0.14700
H130        H  0.84885040  0.88922560  0.03282572     0.14700
H131        H  0.89736177  0.88326808  0.18058924     0.14700
H132        H  0.86875121  0.91099655  0.17992770     0.14700
H133        H  0.91214687  0.81602661  0.09145430     0.13000
H134        H  0.91689969  0.82127528  0.13130555     0.13000
H135        H  0.80043627  0.91968944  0.09033092     0.13000
H136        H  0.80560598  0.92526628  0.13003346     0.13000
H137        H  0.85683336  0.86848309  0.09403475     0.26300
H138        H  0.86091858  0.87296236  0.12755134     0.26300
N139        N  0.86216846  0.88746731  0.66341384    -0.36500
N140        N  0.84513035  0.85975290  0.63257248    -0.57000
N141        N  0.86660389  0.88188087  0.60081835    -0.36500
N142        N  0.88593502  0.90749588  0.63213605    -0.57000
C143        C  0.85225708  0.87415913  0.67551531     0.27100
C144        C  0.87531174  0.89799736  0.67544970     0.27100
C145        C  0.86091065  0.86487886  0.59040705     0.27100
C146        C  0.88134726  0.89098802  0.58996019     0.27100
C147        C  0.83309311  0.85501764  0.64845876     0.35700
C148        C  0.83676018  0.85092837  0.61577941     0.35700
C149        C  0.89176743  0.91895402  0.64838042     0.35700
C150        C  0.89264271  0.91722372  0.61532896     0.35700
C151        C  0.85884871  0.87654734  0.69560208    -0.21800
C152        C  0.87343490  0.89151858  0.69555108    -0.21800
C153        C  0.87214946  0.86324709  0.57269566    -0.21800
C154        C  0.88484842  0.87985798  0.57228178    -0.21800
C155        C  0.81712169  0.84292862  0.64179698    -0.22800
C156        C  0.81937934  0.84041661  0.62108873    -0.22800
C157        C  0.90255687  0.93587367  0.64190026    -0.22800
C158        C  0.90299127  0.93486309  0.62093392    -0.22800
C159        C  0.83692762  0.86041280  0.66909224    -0.18200
C160        C  0.88840370  0.91383306  0.66903626    -0.18200
C161        C  0.89123531  0.90944730  0.59519580    -0.18200
C162        C  0.84520553  0.85134322  0.59594664    -0.18200
H163        H  0.85369983  0.86836229  0.70895157     0.14700
H164        H  0.88159333  0.89709989  0.70887775     0.14700
H165        H  0.87127604  0.85137188  0.56116961     0.14700
H166        H  0.89556098  0.88320516  0.56036422     0.14700
H167        H  0.80512194  0.83654100  0.65091725     0.13000
H168        H  0.80933126  0.83182738  0.61111656     0.13000
H169        H  0.90950457  0.94763997  0.65129565     0.13000
H170        H  0.91054782  0.94559743  0.61100894     0.13000
H171        H  0.85940653  0.88975829  0.64798460     0.26300
H172        H  0.86006591  0.88763539  0.61396958     0.26300
N173        N  0.86614489  0.67513240  0.87619699    -0.36500
N174        N  0.84746254  0.64305157  0.85167959    -0.57000
N175        N  0.87265619  0.61216742  0.87191133    -0.36500
N176        N  0.89364424  0.64483098  0.89384733    -0.57000
C177        C  0.85529115  0.68634765  0.86265905     0.27100
C178        C  0.88070604  0.68746791  0.88407343     0.27100
C179        C  0.86522326  0.60117151  0.85595278     0.27100
C180        C  0.88880151  0.60193601  0.87945887     0.27100
C181        C  0.83448371  0.65842654  0.84744709     0.35700
C182        C  0.83883719  0.62579389  0.84427427     0.35700
C183        C  0.89915443  0.66149023  0.90483674     0.35700
C184        C  0.90171181  0.62853569  0.90359501     0.35700
C185        C  0.86275120  0.70616519  0.86224867    -0.21800
C186        C  0.87884832  0.70685128  0.87569460    -0.21800
C187        C  0.87656690  0.58354753  0.85360572    -0.21800
C188        C  0.89137508  0.58398346  0.86850135    -0.21800
C189        C  0.81757065  0.65094557  0.83727298    -0.22800
C190        C  0.82031376  0.63026055  0.83527409    -0.22800
C191        C  0.91082401  0.65579557  0.92158281    -0.22800
C192        C  0.91235354  0.63490535  0.92086841    -0.22800
C193        C  0.83851931  0.67932131  0.85105622    -0.18200
C194        C  0.89523958  0.68188703  0.89905455    -0.18200
C195        C  0.90112568  0.60822381  0.89612817    -0.18200
C196        C  0.84826080  0.60641580  0.84371866    -0.18200
H197        H  0.85729133  0.71878763  0.85307107     0.14700
H198        H  0.88813451  0.72013690  0.87889809     0.14700
H199        H  0.87451259  0.57162408  0.84227138     0.14700
H200        H  0.90291400  0.57251523  0.87078232     0.14700
H201        H  0.80478175  0.65954750  0.83155573     0.13000
H202        H  0.80998676  0.61973530  0.82776896     0.13000
H203        H  0.91767941  0.66569273  0.93300510     0.13000
H204        H  0.92066415  0.62552676  0.93164590     0.13000
H205        H  0.86322696  0.66015311  0.88044907     0.26300
H206        H  0.86665289  0.62554387  0.87778598     0.26300
N207        N  0.67166540  0.86817704  0.87960150    -0.36500
N208        N  0.63990535  0.85347699  0.85240835    -0.57000
N209        N  0.61070325  0.87967216  0.87382818    -0.36500
N210        N  0.64309612  0.89678589  0.89856787    -0.57000
C211        C  0.68280722  0.85743698  0.86607966     0.27100
C212        C  0.68453839  0.88016809  0.89045993     0.27100
C213        C  0.59967217  0.87342836  0.85745816     0.27100
C214        C  0.60141053  0.89633122  0.88162751     0.27100
C215        C  0.65476929  0.84072140  0.84642435     0.35700
C216        C  0.62263242  0.84652999  0.84367333     0.35700
C217        C  0.65938487  0.90001496  0.91077826     0.35700
C218        C  0.62733667  0.90609362  0.90767478     0.35700
C219        C  0.70305011  0.86230930  0.86877639    -0.21800
C220        C  0.70413386  0.87667706  0.88404612    -0.21800
C221        C  0.58307759  0.88608619  0.85495448    -0.21800
C222        C  0.58423152  0.90058962  0.87012539    -0.21800
C223        C  0.64696731  0.82577227  0.83353128    -0.22800
C224        C  0.62658248  0.82938111  0.83186576    -0.22800
C225        C  0.65400354  0.91156659  0.92765019    -0.22800
C226        C  0.63368903  0.91532326  0.92574598    -0.22800
C227        C  0.67542919  0.84301181  0.85162927    -0.18200
C228        C  0.67931269  0.89387547  0.90632904    -0.18200
C229        C  0.60760831  0.90745077  0.89920673    -0.18200
C230        C  0.60358968  0.85615105  0.84514526    -0.18200
H231        H  0.71579340  0.85625259  0.86053840     0.14700
H232        H  0.71787617  0.88376899  0.88971026     0.14700
H233        H  0.57138042  0.88505991  0.84330558     0.14700
H234        H  0.57361729  0.91290890  0.87236406     0.14700
H235        H  0.65512250  0.81361348  0.82603920     0.13000
H236        H  0.61594468  0.82055979  0.82275633     0.13000
H237        H  0.66373500  0.91681585  0.94000180     0.13000
H238        H  0.62469231  0.92401603  0.93637250     0.13000
H239        H  0.65628476  0.86694083  0.88185199     0.26300
H240        H  0.62319693  0.87225466  0.87990514     0.26300
N241        N  0.88948353  0.08086421  0.88038041    -0.36500
N242        N  0.90790610  0.11018199  0.85291518    -0.57000
N243        N  0.88657873  0.14343070  0.87393538    -0.36500
N244        N  0.86602932  0.11382950  0.89941139    -0.57000
C245        C  0.89857128  0.06802226  0.86707899     0.27100
C246        C  0.87584837  0.06977589  0.89093057     0.27100
C247        C  0.89427315  0.15366226  0.85783149     0.27100
C248        C  0.87266456  0.15568486  0.88270496     0.27100
C249        C  0.91874801  0.09353547  0.84766653     0.35700
C250        C  0.91682238  0.12637425  0.84391373     0.35700
C251        C  0.85989974  0.09801906  0.91111590     0.35700
C252        C  0.85903661  0.13107824  0.90829371     0.35700
C253        C  0.89087111  0.04846760  0.86944806    -0.21800
C254        C  0.87659920  0.04954438  0.88447804    -0.21800
C255        C  0.88525786  0.17273067  0.85645524    -0.21800
C256        C  0.87178492  0.17407038  0.87221187    -0.21800
C257        C  0.93449547  0.09913247  0.83506613    -0.22800
C258        C  0.93328488  0.11993903  0.83268891    -0.22800
C259        C  0.84857007  0.10522543  0.92730168    -0.22800
C260        C  0.84807425  0.12614148  0.92555244    -0.22800
C261        C  0.91405103  0.07322944  0.85324952    -0.18200
C262        C  0.86327101  0.07710121  0.90676194    -0.18200
C263        C  0.86141468  0.15112303  0.90044328    -0.18200
C264        C  0.90981499  0.14676156  0.84482532    -0.18200
H265        H  0.89507917  0.03479553  0.86119628     0.14700
H266        H  0.86786549  0.03675031  0.89003439     0.14700
H267        H  0.88818165  0.18458813  0.84533901     0.14700
H268        H  0.86245578  0.18718188  0.87547758     0.14700
H269        H  0.94561753  0.08925038  0.82820247     0.13000
H270        H  0.94334509  0.12924901  0.82365688     0.13000
H271        H  0.84122501  0.09634049  0.93903785     0.13000
H272        H  0.84020288  0.13647225  0.93563504     0.13000
H273        H  0.89302775  0.09607638  0.88281698     0.26300
H274        H  0.89138278  0.12938130  0.87925474     0.26300
O275        O  0.26979064  0.54131277  0.22150434    -0.78400
C276        C  0.21384717  0.53742986  0.25914544     0.82700
O277        O  0.28796502  0.50468750  0.28190953    -0.79500
O278        O  0.22135537  0.47480213  0.27267802    -0.81000
O279        O  0.23629803  0.47821133  0.20089446    -0.80800
O280        O  0.27072329  0.51547727  0.19944139    -0.79400
Zn281      Zn  0.25726273  0.52886322  0.24681690     1.55700
O282        O  0.21088370  0.47859789  0.22280302    -0.80800
Cd283      Cd  0.25988504  0.49160196  0.21608416     1.59700
Cd284      Cd  0.27073565  0.48402492  0.26443600     1.59600
O285        O  0.28255146  0.47076236  0.21635810    -0.80800
O286        O  0.25317950  0.49969567  0.24427300    -1.91300
Cd287      Cd  0.22397909  0.49344514  0.24787434     1.59900
O288        O  0.29136082  0.46543173  0.24898860    -0.80700
O289        O  0.20792592  0.51916970  0.25585317    -0.79400
C290        C  0.28794917  0.52420368  0.28167592     0.83200
C291        C  0.27461574  0.53392731  0.20416728     0.82800
O292        O  0.23186280  0.54305434  0.25542197    -0.78300
C293        C  0.21827407  0.47365170  0.20555209     0.83600
O294        O  0.27680644  0.53427479  0.26941023    -0.78400
C295        C  0.29359211  0.46229884  0.22985984     0.83700
C296        C  0.23303009  0.46560530  0.28517529     0.84100
O297        O  0.25227815  0.46661754  0.28397506    -0.80900
O298        O  0.26362098  0.20699240  0.52360478    -0.78400
C299        C  0.21103831  0.21201028  0.48011610     0.82700
O300        O  0.28021586  0.24790007  0.46395768    -0.79500
O301        O  0.21607987  0.27953139  0.47596221    -0.81000
O302        O  0.22616489  0.26966191  0.54478113    -0.80800
O303        O  0.25901114  0.22938183  0.54863978    -0.79400
Zn304      Zn  0.25244324  0.22071989  0.49836153     1.55700
O305        O  0.20230197  0.26647859  0.52069206    -0.80800
Cd306      Cd  0.25062793  0.25488600  0.53201974     1.59700
Cd307      Cd  0.26459135  0.26681919  0.48448827     1.59600
O308        O  0.27514695  0.27343009  0.53477423    -0.80800
O309        O  0.24670248  0.24938292  0.50238589    -1.91300
Cd310      Cd  0.21803363  0.25547906  0.49589259     1.59900
O311        O  0.28531327  0.28235475  0.50346142    -0.80700
O312        O  0.20481931  0.23033067  0.48213933    -0.79400
C313        C  0.28229366  0.22846892  0.46395595     0.83200
C314        C  0.26538042  0.21216451  0.54232960     0.82800
O315        O  0.22805183  0.20617685  0.48720473    -0.78300
C316        C  0.20828086  0.27286672  0.53817040     0.83600
O317        O  0.27328821  0.21720821  0.47682233    -0.78400
C318        C  0.28718691  0.28275410  0.52296165     0.83700
C319        C  0.22841668  0.29087602  0.46643556     0.84100
O320        O  0.24749651  0.28819873  0.46759637    -0.80900
O321        O  0.51205315  0.77649695  0.79537203    -0.78400
C322        C  0.46175760  0.73341544  0.78733776     0.82700
O323        O  0.53454593  0.72132745  0.74955393    -0.79500
O324        O  0.46565856  0.72847596  0.72415244    -0.81000
O325        O  0.47795713  0.80089536  0.73389967    -0.80800
O326        O  0.51314294  0.80073899  0.77159877    -0.79400
Zn327      Zn  0.50372684  0.75102670  0.77950502     1.55700
O328        O  0.45468498  0.77630702  0.73364067    -0.80800
Cd329      Cd  0.50281483  0.78601622  0.74593459     1.59700
Cd330      Cd  0.51470319  0.73909939  0.73188188     1.59600
O331        O  0.52523686  0.78896687  0.72516280    -0.80800
O332        O  0.49801879  0.75652729  0.75091197    -1.91300
Cd333      Cd  0.46913537  0.75121912  0.74536285     1.59900
O334        O  0.53187992  0.75784149  0.71285068    -0.80700
O335        O  0.45478756  0.74013609  0.77045718    -0.79400
C336        C  0.53791662  0.72153232  0.76885192     0.83200
C337        C  0.51628540  0.79467721  0.78982214     0.82800
O338        O  0.48011086  0.73639074  0.79273293    -0.78300
C339        C  0.46027115  0.79445957  0.72955728     0.83600
O340        O  0.52760046  0.73242443  0.78103271    -0.78400
C341        C  0.53464229  0.77716457  0.71312625     0.83700
C342        C  0.47720004  0.71789916  0.71293455     0.84100
O343        O  0.49636644  0.72009047  0.71344574    -0.80900
O344        O  0.20627985  0.73307923  0.98557731    -0.78400
C345        C  0.21556105  0.77246061  0.03971862     0.82700
O346        O  0.24937672  0.78671781  0.96280770    -0.79500
O347        O  0.27956244  0.77627048  0.03188333    -0.81000
O348        O  0.26599594  0.70627960  0.01910589    -0.80800
O349        O  0.22937105  0.70875621  0.98205360    -0.79400
Zn350      Zn  0.22202494  0.75713052  0.99653729     1.55700
O351        O  0.26757370  0.72995088  0.04353697    -0.80800
Cd352      Cd  0.25467822  0.72223041  0.99433457     1.59700
Cd353      Cd  0.26773260  0.76942147  0.98256451     1.59600
O354        O  0.27623800  0.71992108  0.97265820    -0.80800
O355        O  0.25019517  0.75143897  0.00038469    -1.91300
Cd356      Cd  0.25678548  0.75565628  0.02961755     1.59900
O357        O  0.28738066  0.75131729  0.96546122    -0.80700
O358        O  0.23321631  0.76764012  0.04573474    -0.79400
C359        C  0.23019933  0.78858104  0.96315619     0.83200
C360        C  0.21150068  0.71539649  0.97949444     0.82800
O361        O  0.20940846  0.76864138  0.02160394    -0.78300
C362        C  0.27097280  0.71195209  0.03712407     0.83600
O363        O  0.21934996  0.77853172  0.97550888    -0.78400
C364        C  0.28801986  0.73193693  0.96325140     0.83700
C365        C  0.28895944  0.78831212  0.02007924     0.84100
O366        O  0.28558783  0.78884082  0.00080708    -0.80900
O367        O  0.02185614  0.49546570  0.04437194    -0.78400
C368        C  0.97849499  0.54805082  0.03510725     0.82700
O369        O  0.96374752  0.47250760  0.00450719    -0.79500
O370        O  0.97654921  0.53953283  0.96981756    -0.81000
O371        O  0.04361054  0.52567788  0.98014996    -0.80800
O372        O  0.04339072  0.49062415  0.01894089    -0.79400
Zn373      Zn  0.99655331  0.50557950  0.02983696     1.55700
O374        O  0.02240799  0.55165775  0.98402090    -0.80800
Cd375      Cd  0.02832861  0.50176093  0.99384659     1.59700
Cd376      Cd  0.98058149  0.49057072  0.98423843     1.59600
O377        O  0.02837629  0.47822434  0.97365368    -0.80800
O378        O  0.00013338  0.50834726  0.00062588    -1.91300
Cd379      Cd  0.99649862  0.53739293  0.99360615     1.59900
O380        O  0.99658691  0.47074565  0.96471596    -0.80700
O381        O  0.98333518  0.55314300  0.01703047    -0.79400
C382        C  0.96554461  0.47126791  0.02396201     0.83200
C383        C  0.03851463  0.48857866  0.03760830     0.82800
O384        O  0.98332114  0.53066156  0.04249869    -0.78300
C385        C  0.03908293  0.54445105  0.97782866     0.83600
O386        O  0.97737699  0.48288722  0.03407640    -0.78400
C387        C  0.01559519  0.46777791  0.96343881     0.83700
C388        C  0.96321505  0.52799603  0.96169616     0.84100
O389        O  0.96150364  0.50910324  0.96638086    -0.80900
O390        O  0.29169422  0.01370341  0.77818502    -0.78400
C391        C  0.28670717  0.95766412  0.73812607     0.82700
O392        O  0.25483361  0.02844703  0.71427394    -0.79500
O393        O  0.22344738  0.96472917  0.72774378    -0.81000
O394        O  0.22765937  0.98225791  0.79712312    -0.80800
O395        O  0.26600277  0.01535605  0.79966753    -0.79400
Zn396      Zn  0.27925774  0.00142766  0.75233459     1.55700
O397        O  0.23036086  0.95552057  0.77630479    -0.80800
Cd398      Cd  0.24232110  0.00511958  0.78230539     1.59700
Cd399      Cd  0.23450392  0.01410772  0.73364297     1.59600
O400        O  0.22299431  0.02902000  0.78117327    -0.80800
O401        O  0.25034707  0.99750694  0.75439066    -1.91300
Cd402      Cd  0.24387901  0.96820571  0.75099713     1.59900
O403        O  0.21833865  0.03720683  0.74830019    -0.80700
O404        O  0.26859739  0.95227072  0.74157758    -0.79400
C405        C  0.27387604  0.03079060  0.71634675     0.83200
C406        C  0.28433215  0.01889077  0.79538772     0.82800
O407        O  0.29323918  0.97550558  0.74265905    -0.78300
C408        C  0.22405528  0.96367537  0.79274893     0.83600
O409        O  0.28396201  0.02199199  0.73045829    -0.78400
C410        C  0.21539783  0.04026198  0.76731844     0.83700
C411        C  0.21309359  0.97609480  0.71591270     0.84100
O412        O  0.21456854  0.99557341  0.71640553    -0.80900
O413        O  0.69792866  0.73485592  0.48190111    -0.78400
C414        C  0.71150599  0.77155094  0.53764218     0.82700
O415        O  0.73877135  0.79344880  0.46200817    -0.79500
O416        O  0.77452140  0.77706559  0.52441376    -0.81000
O417        O  0.76273617  0.70814483  0.50713438    -0.80800
O418        O  0.72122199  0.71107811  0.47670118    -0.79400
Zn419      Zn  0.71412777  0.75890006  0.49269585     1.55700
O420        O  0.76488908  0.72978344  0.53337084    -0.80800
Cd421      Cd  0.74761500  0.72502056  0.48517095     1.59700
Cd422      Cd  0.75898237  0.77301009  0.47583920     1.59600
O423        O  0.76534630  0.72437235  0.45982408    -0.80800
O424        O  0.74292670  0.75365409  0.49369526    -1.91300
Cd425      Cd  0.75198888  0.75607182  0.52254272     1.59900
O426        O  0.77534388  0.75639019  0.45372825    -0.80700
O427        O  0.72969259  0.76656744  0.54154061    -0.79400
C428        C  0.71951671  0.79421441  0.46268920     0.83200
C429        C  0.70304888  0.71721331  0.47555558     0.82800
O430        O  0.70366404  0.76871389  0.51995632    -0.78300
C431        C  0.76878869  0.71262378  0.52515386     0.83600
O432        O  0.70918783  0.78173385  0.47322229    -0.78400
C433        C  0.77555370  0.73724120  0.44965764     0.83700
C434        C  0.78373262  0.78920139  0.51255605     0.84100
O435        O  0.77959423  0.79021038  0.49345445    -0.80900
O436        O  0.01550245  0.77505384  0.28905391    -0.78400
C437        C  0.96406687  0.73288737  0.28509234     0.82700
O438        O  0.03394252  0.72147117  0.24152068    -0.79500
O439        O  0.96323013  0.73063763  0.22095687    -0.81000
O440        O  0.97514062  0.80177810  0.23254093    -0.80800
O441        O  0.01441538  0.80059726  0.26659103    -0.79400
Zn442      Zn  0.00497090  0.75053989  0.27387213     1.55700
O443        O  0.95177775  0.77740410  0.23430840    -0.80800
Cd444      Cd  0.00126667  0.78678419  0.24125095     1.59700
Cd445      Cd  0.01288082  0.73990073  0.22578677     1.59600
O446        O  0.02022475  0.79034379  0.21704404    -0.80800
O447        O  0.99721775  0.75707036  0.24605300    -1.91300
Cd448      Cd  0.96793111  0.75203520  0.24304915     1.59900
O449        O  0.02894277  0.75919794  0.20623474    -0.80700
O450        O  0.95595366  0.73929257  0.26861739    -0.79400
C451        C  0.03818611  0.72128856  0.26064703     0.83200
C452        C  0.01921532  0.79348855  0.28412782     0.82800
O453        O  0.98261611  0.73625978  0.28927027    -0.78300
C454        C  0.95703060  0.79561683  0.23007154     0.83600
O455        O  0.02831373  0.73174896  0.27347506    -0.78400
C456        C  0.02981705  0.77867397  0.20497856     0.83700
C457        C  0.97378592  0.72012215  0.20873042     0.84100
O458        O  0.99301136  0.72170099  0.20812462    -0.80900
O459        O  0.54741572  0.02750300  0.98343172    -0.78400
C460        C  0.54080798  0.98433219  0.03585208     0.82700
O461        O  0.50538074  0.97099077  0.96051453    -0.79500
O462        O  0.47786765  0.97838785  0.02815490    -0.81000
O463        O  0.48661955  0.05053487  0.01960624    -0.80800
O464        O  0.52419772  0.05200906  0.98368007    -0.79400
Zn465      Zn  0.53306447  0.00208560  0.99326136     1.55700
O466        O  0.48554999  0.02534007  0.04230335    -0.80800
Cd467      Cd  0.49914390  0.03667667  0.99426761     1.59700
Cd468      Cd  0.48691967  0.98969999  0.97894237     1.59600
O469        O  0.47720178  0.03981630  0.97253224    -0.80800
O470        O  0.50461628  0.00705931  0.99787832    -1.91300
Cd471      Cd  0.49870082  0.00120056  0.02691508     1.59900
O472        O  0.46917645  0.00889724  0.96025023    -0.80700
O473        O  0.52342601  0.98968013  0.04197021    -0.79400
C474        C  0.52463550  0.97091336  0.95911853     0.83200
C475        C  0.54191802  0.04578215  0.97961006     0.82800
O476        O  0.54680370  0.98856406  0.01784303    -0.78300
C477        C  0.48123722  0.04351616  0.03688092     0.83600
O478        O  0.53572427  0.98227035  0.97036751    -0.78400
C479        C  0.46700335  0.02831219  0.96060155     0.83700
C480        C  0.46664413  0.96849444  0.01572615     0.84100
O481        O  0.46738624  0.97118089  0.99636266    -0.80900
C482        C  0.29682798  0.77672383  0.28842509     0.80400
N483        N  0.27864672  0.78205448  0.29628689    -0.77900
C484        C  0.26823246  0.79824077  0.28849435     0.82800
N485        N  0.27620528  0.80909820  0.27279139    -0.77900
C486        C  0.29426589  0.80388401  0.26474210     0.82900
N487        N  0.30443672  0.78773356  0.27268868    -0.79600
N488        N  0.37740425  0.67724482  0.37274789    -0.36500
N489        N  0.35287209  0.64705626  0.35021901    -0.57000
N490        N  0.37468409  0.61398808  0.37021806    -0.36500
N491        N  0.39697621  0.64427848  0.39513553    -0.57000
C492        C  0.36301085  0.68946682  0.36451183     0.27100
C493        C  0.38697328  0.68807235  0.38766247     0.27100
C494        C  0.35940421  0.60346838  0.36106845     0.27100
C495        C  0.38235762  0.60196377  0.38521254     0.27100
C496        C  0.34728745  0.66429842  0.34032434     0.35700
C497        C  0.34637313  0.63121136  0.33854418     0.35700
C498        C  0.40802174  0.66012389  0.40260929     0.35700
C499        C  0.40608671  0.62699092  0.40173329     0.35700
C500        C  0.36371509  0.70842535  0.37403116    -0.21800
C501        C  0.37880306  0.70755086  0.38860294    -0.21800
C502        C  0.35754659  0.58445938  0.37025340    -0.21800
C503        C  0.37209947  0.58345767  0.38534277    -0.21800
C504        C  0.33709222  0.65941456  0.32234011    -0.22800
C505        C  0.33671142  0.63847241  0.32109152    -0.22800
C506        C  0.42412728  0.65283960  0.41413286    -0.22800
C507        C  0.42286413  0.63187944  0.41363717    -0.22800
C508        C  0.34980747  0.68432946  0.34808437    -0.18200
C509        C  0.40307514  0.68106641  0.40028063    -0.18200
C510        C  0.39872978  0.60689201  0.39844330    -0.18200
C511        C  0.34735808  0.61038072  0.34440424    -0.18200
H512        H  0.35436789  0.72159097  0.37080538     0.14700
H513        H  0.38313916  0.71986823  0.39883358     0.14700
H514        H  0.34672380  0.57253688  0.36665291     0.14700
H515        H  0.37467063  0.57059577  0.39541920     0.14700
H516        H  0.33048960  0.66984162  0.31133088     0.13000
H517        H  0.32977432  0.62962081  0.30889073     0.13000
H518        H  0.43546410  0.66169604  0.42228030     0.13000
H519        H  0.43301412  0.62143104  0.42136443     0.13000
H520        H  0.38101674  0.66263761  0.36788748     0.26300
H521        H  0.38015759  0.62820411  0.36593251     0.26300
C522        C  0.48959026  0.97672609  0.28281378     0.80400
N523        N  0.47908862  0.99261273  0.29070913    -0.77900
C524        C  0.46126372  0.99857008  0.28210952     0.82800
N525        N  0.45382084  0.98820622  0.26555260    -0.77900
C526        C  0.46422483  0.97222979  0.25750885     0.82900
N527        N  0.48203590  0.96668452  0.26626167    -0.79600
N528        N  0.57535282  0.90104204  0.38012774    -0.36500
N529        N  0.60331638  0.87282836  0.39996741    -0.57000
N530        N  0.63763471  0.89681855  0.38530708    -0.36500
N531        N  0.60965568  0.92326910  0.36285474    -0.57000
C532        C  0.56233491  0.88614131  0.38583134     0.27100
C533        C  0.56569851  0.91292510  0.36624789     0.27100
C534        C  0.64721071  0.88004582  0.39261105     0.27100
C535        C  0.65053657  0.90645453  0.37258608     0.27100
C536        C  0.58581197  0.86616541  0.40811819     0.35700
C537        C  0.61835680  0.86413408  0.41102051     0.35700
C538        C  0.59454944  0.93546875  0.35613576     0.35700
C539        C  0.62713894  0.93298141  0.35852327     0.35700
C540        C  0.54404098  0.88880782  0.37572198    -0.21800
C541        C  0.54613858  0.90570085  0.36340344    -0.21800
C542        C  0.66654215  0.87926398  0.38472626    -0.21800
C543        C  0.66870607  0.89597625  0.37229927    -0.21800
C544        C  0.58974824  0.85310821  0.42432663    -0.22800
C545        C  0.61033215  0.85193988  0.42626506    -0.22800
C546        C  0.60247750  0.95297037  0.34735391    -0.22800
C547        C  0.62310725  0.95136636  0.34879972    -0.22800
C548        C  0.56630551  0.87056227  0.40034482    -0.18200
C549        C  0.57376470  0.93043721  0.35646461    -0.18200
C550        C  0.64664138  0.92465807  0.36152869    -0.18200
C551        C  0.63916849  0.86558516  0.40646816    -0.18200
H552        H  0.53055328  0.87956094  0.37707884     0.14700
H553        H  0.53454554  0.91190972  0.35343586     0.14700
H554        H  0.67795806  0.86777506  0.38745123     0.14700
H555        H  0.68217680  0.89980041  0.36390733     0.14700
H556        H  0.57890968  0.84516909  0.43372477     0.13000
H557        H  0.61845457  0.84290861  0.43747937     0.13000
H558        H  0.59426464  0.96542255  0.34029128     0.13000
H559        H  0.63388030  0.96233414  0.34302097     0.13000
H560        H  0.58973515  0.90349692  0.38598244     0.26300
H561        H  0.62338070  0.90177372  0.38934894     0.26300
N562        N  0.37903573  0.88392340  0.16658173    -0.36500
N563        N  0.36008625  0.85636302  0.13704458    -0.57000
N564        N  0.37945685  0.87825802  0.10353182    -0.36500
N565        N  0.40061898  0.90380252  0.13359512    -0.57000
C566        C  0.37158174  0.86954381  0.17928519     0.27100
C567        C  0.39249275  0.89521979  0.17744063     0.27100
C568        C  0.37215739  0.86156968  0.09367378     0.27100
C569        C  0.39432846  0.88613825  0.09187980     0.27100
C570        C  0.34973850  0.85123874  0.15400004     0.35700
C571        C  0.34958919  0.84860829  0.12097820     0.35700
C572        C  0.40554919  0.91671429  0.14905032     0.35700
C573        C  0.40669810  0.91288416  0.11615858     0.35700
C574        C  0.38025361  0.87186008  0.19856837    -0.21800
C575        C  0.39340510  0.88812273  0.19742378    -0.21800
C576        C  0.38229412  0.85899266  0.07539126    -0.21800
C577        C  0.39627416  0.87451183  0.07425364    -0.21800
C578        C  0.33270872  0.84000295  0.14873275    -0.22800
C579        C  0.33248518  0.83852545  0.12779418    -0.22800
C580        C  0.41498107  0.93397923  0.14142060    -0.22800
C581        C  0.41570754  0.93155478  0.12058333    -0.22800
C582        C  0.35625193  0.85528715  0.17423119    -0.18200
C583        C  0.40306402  0.91244458  0.17005460    -0.18200
C584        C  0.40587555  0.90378927  0.09651155    -0.18200
C585        C  0.35617514  0.84899769  0.10045338    -0.18200
H586        H  0.37719482  0.86299478  0.21215747     0.14700
H587        H  0.40245963  0.89411555  0.20995372     0.14700
H588        H  0.37998938  0.84707639  0.06408940     0.14700
H589        H  0.40675428  0.87687424  0.06188979     0.14700
H590        H  0.32163792  0.83348848  0.15890005     0.13000
H591        H  0.32114340  0.83066889  0.11867655     0.13000
H592        H  0.42104056  0.94681374  0.14999088     0.13000
H593        H  0.42235916  0.94219787  0.10991972     0.13000
H594        H  0.37431421  0.88668202  0.15167475     0.26300
H595        H  0.37397102  0.88439884  0.11702247     0.26300
C596        C  0.26878083  0.96150536  0.45401975     0.80400
N597        N  0.27738148  0.95467169  0.47169596    -0.77900
C598        C  0.29459411  0.96335573  0.47918944     0.82800
N599        N  0.30314451  0.97906972  0.46882974    -0.77900
C600        C  0.29471263  0.98618391  0.45120299     0.82900
N601        N  0.27757259  0.97724203  0.44383906    -0.79600
C602        C  0.45230473  0.80146062  0.47905710     0.80400
N603        N  0.44733187  0.78398254  0.46882087    -0.77900
C604        C  0.45630860  0.77918740  0.45079699     0.82800
N605        N  0.47051804  0.79206875  0.44310930    -0.77900
C606        C  0.47574876  0.80954959  0.45320261     0.82900
N607        N  0.46645406  0.81415237  0.47106755    -0.79600
N608        N  0.36666114  0.87681920  0.57920707    -0.36500
N609        N  0.38704788  0.85155052  0.60943007    -0.57000
N610        N  0.36252217  0.87034727  0.64146860    -0.36500
N611        N  0.33985114  0.89291137  0.61084996    -0.57000
C612        C  0.37786135  0.86480971  0.56684025     0.27100
C613        C  0.35234397  0.88583755  0.56741022     0.27100
C614        C  0.37095354  0.85466309  0.65183311     0.27100
C615        C  0.34687656  0.87706931  0.65270123     0.27100
C616        C  0.39918882  0.84771627  0.59339288     0.35700
C617        C  0.39640704  0.84383145  0.62614943     0.35700
C618        C  0.33341860  0.90422674  0.59481537     0.35700
C619        C  0.33204572  0.90156744  0.62780642     0.35700
C620        C  0.37075204  0.86645790  0.54688390    -0.21800
C621        C  0.35463791  0.87963811  0.54724718    -0.21800
C622        C  0.36062479  0.85145683  0.66990880    -0.21800
C623        C  0.34541363  0.86562480  0.67045486    -0.21800
C624        C  0.41619100  0.83718565  0.59990623    -0.22800
C625        C  0.41441106  0.83468940  0.62067638    -0.22800
C626        C  0.32117652  0.91995257  0.60158412    -0.22800
C627        C  0.32039957  0.91833342  0.62250923    -0.22800
C628        C  0.39476663  0.85293270  0.57285165    -0.18200
C629        C  0.33777914  0.90016752  0.57407306    -0.18200
C630        C  0.33445928  0.89386430  0.64786762    -0.18200
C631        C  0.38847253  0.84401127  0.64611694    -0.18200
H632        H  0.37653500  0.85889381  0.53343064     0.14700
H633        H  0.34568375  0.88419833  0.53409029     0.14700
H634        H  0.36380539  0.84017527  0.68158847     0.14700
H635        H  0.33453935  0.86734165  0.68257336     0.14700
H636        H  0.42853775  0.83178299  0.59066137     0.13000
H637        H  0.42509942  0.82695007  0.63059456     0.13000
H638        H  0.31363221  0.93143652  0.59240912     0.13000
H639        H  0.31207400  0.92825739  0.63262061     0.13000
H640        H  0.36925964  0.87952526  0.59460341     0.26300
H641        H  0.36796553  0.87693850  0.62821832     0.26300
N642        N  0.35843252  0.08450213  0.35301874    -0.36500
N643        N  0.34002524  0.11364815  0.38095814    -0.57000
N644        N  0.36155446  0.14720743  0.36132684    -0.36500
N645        N  0.38221608  0.11767976  0.33536950    -0.57000
C646        C  0.34958092  0.07165638  0.36643703     0.27100
C647        C  0.37254079  0.07365393  0.34291928     0.27100
C648        C  0.35463272  0.15682697  0.37822894     0.27100
C649        C  0.37609903  0.15917772  0.35318971     0.27100
C650        C  0.32860450  0.09700900  0.38501257     0.35700
C651        C  0.33094160  0.12968494  0.39006306     0.35700
C652        C  0.38831240  0.10212997  0.32326686     0.35700
C653        C  0.38900241  0.13511427  0.32669097     0.35700
C654        C  0.35786731  0.05231230  0.36454727    -0.21800
C655        C  0.37238099  0.05358213  0.34975197    -0.21800
C656        C  0.36483865  0.17522318  0.38073612    -0.21800
C657        C  0.37819297  0.17680907  0.36483137    -0.21800
C658        C  0.31222935  0.10245389  0.39680686    -0.22800
C659        C  0.31365979  0.12316062  0.39994253    -0.22800
C660        C  0.39930478  0.10967307  0.30701397    -0.22800
C661        C  0.39971167  0.13054945  0.30914661    -0.22800
C662        C  0.33380729  0.07673378  0.37989905    -0.18200
C663        C  0.38519365  0.08113169  0.32730210    -0.18200
C664        C  0.38698844  0.15496264  0.33513680    -0.18200
C665        C  0.33890008  0.14979884  0.39103100    -0.18200
H666        H  0.35393302  0.03867624  0.37298303     0.14700
H667        H  0.38177736  0.04110903  0.34464877     0.14700
H668        H  0.36285744  0.18643967  0.39272836     0.14700
H669        H  0.38839084  0.18947076  0.36228485     0.14700
H670        H  0.30065179  0.09249442  0.40280769     0.13000
H671        H  0.30329563  0.13231781  0.40874142     0.13000
H672        H  0.40646208  0.10101882  0.29498441     0.13000
H673        H  0.40739888  0.14110088  0.29913412     0.13000
H674        H  0.35445347  0.09957639  0.35030622     0.26300
H675        H  0.35600499  0.13371614  0.35507103     0.26300
N676        N  0.17154906  0.88338737  0.36483762    -0.36500
N677        N  0.14050856  0.85531558  0.34950400    -0.57000
N678        N  0.11038492  0.87760917  0.37294351    -0.36500
N679        N  0.14210974  0.90326443  0.39086180    -0.57000
C680        C  0.18293489  0.86942252  0.35503049     0.27100
C681        C  0.18395143  0.89392303  0.37765728     0.27100
C682        C  0.09949247  0.86110864  0.36692539     0.27100
C683        C  0.10026906  0.88660812  0.38836617     0.27100
C684        C  0.15560381  0.85033150  0.33669761     0.35700
C685        C  0.12354198  0.84674747  0.34163705     0.35700
C686        C  0.15815594  0.91550577  0.39473077     0.35700
C687        C  0.12582211  0.91295931  0.39836660     0.35700
C688        C  0.20286450  0.87126059  0.36149095    -0.21800
C689        C  0.20349789  0.88667099  0.37580798    -0.21800
C690        C  0.08211990  0.85974588  0.37848365    -0.21800
C691        C  0.08260167  0.87584289  0.39201515    -0.21800
C692        C  0.14827291  0.83831339  0.32078612    -0.22800
C693        C  0.12794384  0.83603205  0.32391460    -0.22800
C694        C  0.15208460  0.93299698  0.40491533    -0.22800
C695        C  0.13155822  0.93140504  0.40718409    -0.22800
C696        C  0.17606382  0.85574060  0.33966473    -0.18200
C697        C  0.17834660  0.91052809  0.39027164    -0.18200
C698        C  0.10612425  0.90467774  0.39875702    -0.18200
C699        C  0.10426287  0.84782406  0.35062018    -0.18200
H700        H  0.21564972  0.86241945  0.35639909     0.14700
H701        H  0.21688359  0.89201223  0.38383581     0.14700
H702        H  0.07028618  0.84835538  0.37726304     0.14700
H703        H  0.07120364  0.87923086  0.40325320     0.14700
H704        H  0.15669080  0.83183753  0.30825636     0.13000
H705        H  0.11759382  0.82750428  0.31420375     0.13000
H706        H  0.16148132  0.94551098  0.41027077     0.13000
H707        H  0.12198928  0.94242847  0.41469614     0.13000
H708        H  0.15642027  0.88629713  0.36202231     0.26300
H709        H  0.12339857  0.88305871  0.36618403     0.26300
O710        O  0.69904903  0.01934403  0.26034918    -0.78400
C711        C  0.70841198  0.98089801  0.20589267     0.82700
O712        O  0.74502050  0.97108915  0.28442896    -0.79500
O713        O  0.77143551  0.97966949  0.21463403    -0.81000
O714        O  0.75753474  0.05047439  0.22534011    -0.80800
O715        O  0.71928313  0.04663556  0.26010420    -0.79400
Zn716      Zn  0.71543497  0.99628605  0.24929300     1.55700
O717        O  0.76080785  0.02590443  0.20204758    -0.80800
Cd718      Cd  0.74594176  0.03458675  0.25014623     1.59700
Cd719      Cd  0.76154177  0.98878581  0.26377025     1.59600
O720        O  0.76663652  0.03909974  0.27331964    -0.80800
O721        O  0.74286125  0.00479385  0.24511111    -1.91300
Cd722      Cd  0.74897497  0.00045968  0.21590576     1.59900
O723        O  0.78025692  0.00869676  0.28029568    -0.80700
O724        O  0.72507352  0.98808144  0.19951007    -0.79400
C725        C  0.72613794  0.96725749  0.28398748     0.83200
C726        C  0.70256222  0.03808149  0.26435414     0.82800
O727        O  0.70291966  0.98323807  0.22434990    -0.78300
C728        C  0.76360474  0.04423976  0.20797614     0.83600
O729        O  0.71432447  0.97530845  0.27093673    -0.78400
C730        C  0.77943343  0.02803582  0.28280713     0.83700
C731        C  0.78174380  0.96882381  0.22697589     0.84100
O732        O  0.77954389  0.96957297  0.24632983    -0.80900
O733        O  0.80101257  0.23916981  0.97167110    -0.78400
C734        C  0.80445168  0.29245694  0.01408400     0.82700
O735        O  0.76162865  0.22465605  0.03184238    -0.79500
O736        O  0.74188465  0.29028415  0.02829097    -0.81000
O737        O  0.74137270  0.28417552  0.95448459    -0.80800
O738        O  0.77812835  0.24547114  0.94739637    -0.79400
Zn739      Zn  0.79012379  0.25137071  0.99748728     1.55700
O740        O  0.74403577  0.30527105  0.98122247    -0.80800
Cd741      Cd  0.75480116  0.25746469  0.96514058     1.59700
Cd742      Cd  0.74439971  0.24246873  0.01220171     1.59600
O743        O  0.73250209  0.23597870  0.96278284    -0.80800
O744        O  0.76249077  0.25971182  0.99454390    -1.91300
Cd745      Cd  0.75976821  0.28859486  0.00303144     1.59900
O746        O  0.72678427  0.22334590  0.99394701    -0.80700
O747        O  0.78724072  0.30092167  0.01197554    -0.79400
C748        C  0.78049711  0.22112145  0.03143238     0.83200
C749        C  0.79486458  0.23759338  0.95320310     0.82800
O750        O  0.80755340  0.27417912  0.00818972    -0.78300
C751        C  0.73728522  0.30106936  0.96333784     0.83600
O752        O  0.79207963  0.22977867  0.01870118    -0.78400
C753        C  0.72358268  0.22360380  0.97467177     0.83700
C754        C  0.72864201  0.27880362  0.03634715     0.84100
O755        O  0.72605581  0.26032295  0.03065252    -0.80900
C756        C  0.28898507  0.27607659  0.79824331     0.80400
N757        N  0.27377415  0.28675220  0.80701118    -0.77900
C758        C  0.26850426  0.30552291  0.80002287     0.82800
N759        N  0.27866995  0.31363769  0.78405490    -0.77900
C760        C  0.29389990  0.30326127  0.77499356     0.82900
N761        N  0.29904755  0.28444244  0.78220211    -0.79600
C762        C  0.48190777  0.30262664  0.94691332     0.80400
N763        N  0.47097837  0.28738005  0.93817305    -0.77900
C764        C  0.45505835  0.27889013  0.94787031     0.82800
N765        N  0.44976478  0.28612172  0.96657551    -0.77900
C766        C  0.46055238  0.30154584  0.97557149     0.82900
N767        N  0.47671269  0.30964206  0.96570026    -0.79600
C768        C  0.45856282  0.46405820  0.76224722     0.80400
N769        N  0.45026326  0.48023093  0.77194756    -0.77900
C770        C  0.45848366  0.48784301  0.78951467     0.82800
N771        N  0.47539213  0.47890203  0.79753250    -0.77900
C772        C  0.48399585  0.46263317  0.78785682     0.82900
N773        N  0.47539275  0.45538136  0.77031657    -0.79600
C774        C  0.26726683  0.46430566  0.95934241     0.80400
N775        N  0.27428358  0.45375497  0.97582569    -0.77900
C776        C  0.29160048  0.45951160  0.98547001     0.82800
N777        N  0.30202467  0.47583519  0.97843754    -0.77900
C778        C  0.29544363  0.48645187  0.96187008     0.82900
N779        N  0.27801858  0.48057226  0.95228740    -0.79600
N780        N  0.38294582  0.58173384  0.88227496    -0.36500
N781        N  0.40629462  0.61341399  0.86227618    -0.57000
N782        N  0.38335203  0.64480402  0.88387018    -0.36500
N783        N  0.35859743  0.61299725  0.90187866    -0.57000
C784        C  0.39287961  0.57052444  0.86821719     0.27100
C785        C  0.36710624  0.57042517  0.88866596     0.27100
C786        C  0.39276612  0.65619843  0.86960200     0.27100
C787        C  0.36767738  0.65593272  0.89084791     0.27100
C788        C  0.41745317  0.59697558  0.85703291     0.35700
C789        C  0.41722654  0.63012335  0.85732119     0.35700
C790        C  0.35153983  0.59625363  0.91151796     0.35700
C791        C  0.35206998  0.62928094  0.91261358     0.35700
C792        C  0.38339106  0.55171585  0.86586624    -0.21800
C793        C  0.36708488  0.55168712  0.87872136    -0.21800
C794        C  0.38319033  0.67496299  0.86780626    -0.21800
C795        C  0.36726337  0.67471349  0.88106537    -0.21800
C796        C  0.43545568  0.60326637  0.84846034    -0.22800
C797        C  0.43529403  0.62426251  0.84858764    -0.22800
C798        C  0.34040933  0.60188893  0.92843719    -0.22800
C799        C  0.34085354  0.62284765  0.92921076    -0.22800
C800        C  0.41085103  0.57644905  0.85831123    -0.18200
C801        C  0.35342405  0.57611880  0.90409532    -0.18200
C802        C  0.35409406  0.64978200  0.90619874    -0.18200
C803        C  0.41036634  0.65050683  0.85898759    -0.18200
H804        H  0.38778405  0.53921736  0.85602682     0.14700
H805        H  0.35656866  0.53917526  0.88069772     0.14700
H806        H  0.38716809  0.68761019  0.85799863     0.14700
H807        H  0.35662989  0.68702755  0.88322397     0.14700
H808        H  0.44729124  0.59374211  0.84236506     0.13000
H809        H  0.44700489  0.63404800  0.84258713     0.13000
H810        H  0.33249491  0.59196517  0.93889817     0.13000
H811        H  0.33333537  0.63229137  0.94038713     0.13000
H812        H  0.38742926  0.59582480  0.88806710     0.26300
H813        H  0.38798532  0.63063926  0.88925248     0.26300
N814        N  0.58288479  0.38445196  0.87383463    -0.36500
N815        N  0.61296767  0.41086245  0.85505288    -0.57000
N816        N  0.64510416  0.38752287  0.87499108    -0.36500
N817        N  0.61495313  0.36310500  0.89626088    -0.57000
C818        C  0.57101108  0.39940851  0.86603566     0.27100
C819        C  0.57206146  0.37454937  0.88821618     0.27100
C820        C  0.65570766  0.40374519  0.86799703     0.27100
C821        C  0.65672728  0.37799052  0.88918089     0.27100
C822        C  0.59644123  0.41654446  0.84415445     0.35700
C823        C  0.62912781  0.41844583  0.84511051     0.35700
C824        C  0.59898652  0.35130025  0.90130278     0.35700
C825        C  0.63168989  0.35229549  0.90112271     0.35700
C826        C  0.55228670  0.39872350  0.87527235    -0.21800
C827        C  0.55300930  0.38320910  0.88937909    -0.21800
C828        C  0.67433970  0.40448839  0.87786996    -0.21800
C829        C  0.67504240  0.38814919  0.89110834    -0.21800
C830        C  0.60208133  0.42793573  0.82731367    -0.22800
C831        C  0.62277241  0.42899212  0.82780693    -0.22800
C832        C  0.60559504  0.33298089  0.90956850    -0.22800
C833        C  0.62632436  0.33360673  0.90945460    -0.22800
C834        C  0.57631679  0.41307666  0.85020258    -0.18200
C835        C  0.57856548  0.35738748  0.89972741    -0.18200
C836        C  0.65169264  0.35966725  0.89944053    -0.18200
C837        C  0.64940267  0.41722136  0.85221225    -0.18200
H838        H  0.53937991  0.40837992  0.87223586     0.14700
H839        H  0.54079103  0.37882182  0.89931874     0.14700
H840        H  0.68629968  0.41553479  0.87565050     0.14700
H841        H  0.68764742  0.38418873  0.90097549     0.14700
H842        H  0.59232116  0.43491143  0.81594824     0.13000
H843        H  0.63203633  0.43682113  0.81674883     0.13000
H844        H  0.59643327  0.32051312  0.91517947     0.13000
H845        H  0.63628944  0.32176101  0.91508919     0.13000
H846        H  0.59720078  0.38057799  0.86890335     0.26300
H847        H  0.63122464  0.38245951  0.86948416     0.26300
N848        N  0.38383274  0.36727310  0.67156703    -0.36500
N849        N  0.36377035  0.34022890  0.64228673    -0.57000
N850        N  0.38348335  0.36210540  0.60869686    -0.36500
N851        N  0.40586241  0.38680793  0.63815526    -0.57000
C852        C  0.37508829  0.35386022  0.68453042     0.27100
C853        C  0.39773044  0.37804875  0.68243028     0.27100
C854        C  0.37577792  0.34560096  0.59885579     0.27100
C855        C  0.39806812  0.36997405  0.59667308     0.27100
C856        C  0.35313292  0.33559691  0.65921633     0.35700
C857        C  0.35300292  0.33295197  0.62616095     0.35700
C858        C  0.41246314  0.39860926  0.65385216     0.35700
C859        C  0.41222913  0.39585976  0.62078601     0.35700
C860        C  0.38328763  0.35637860  0.70398085    -0.21800
C861        C  0.39751479  0.37164995  0.70267991    -0.21800
C862        C  0.38553446  0.34299633  0.58036026    -0.21800
C863        C  0.39952820  0.35844503  0.57893831    -0.21800
C864        C  0.33565080  0.32514339  0.65386202    -0.22800
C865        C  0.33547522  0.32361202  0.63291362    -0.22800
C866        C  0.42332355  0.41510769  0.64640928    -0.22800
C867        C  0.42310291  0.41340496  0.62546070    -0.22800
C868        C  0.35930596  0.34002930  0.67951292    -0.18200
C869        C  0.41009691  0.39399884  0.67483565    -0.18200
C870        C  0.40961830  0.38769152  0.60088867    -0.18200
C871        C  0.35941174  0.33352735  0.60556763    -0.18200
H872        H  0.37935951  0.34815623  0.71773899     0.14700
H873        H  0.40657140  0.37743718  0.71530589     0.14700
H874        H  0.38281524  0.33121547  0.56900479     0.14700
H875        H  0.40967838  0.36086469  0.56630148     0.14700
H876        H  0.32414357  0.31937422  0.66398193     0.13000
H877        H  0.32376208  0.31640447  0.62374244     0.13000
H878        H  0.43084465  0.42701068  0.65515498     0.13000
H879        H  0.43042333  0.42369918  0.61491052     0.13000
H880        H  0.37992394  0.36958242  0.65638695     0.26300
H881        H  0.37821096  0.36831945  0.62223618     0.26300
N882        N  0.37933108  0.38049238  0.07801742    -0.36500
N883        N  0.40577187  0.35942571  0.10627504    -0.57000
N884        N  0.38350239  0.37748088  0.14062106    -0.36500
N885        N  0.35958741  0.40116955  0.11230688    -0.57000
C886        C  0.39260345  0.37203272  0.06492991     0.27100
C887        C  0.37009036  0.39598521  0.06804855     0.27100
C888        C  0.39985532  0.36995944  0.15049021     0.27100
C889        C  0.37402785  0.39013841  0.15377638     0.27100
C890        C  0.41010124  0.34876223  0.08914675     0.35700
C891        C  0.41383782  0.34887536  0.12206162     0.35700
C892        C  0.34866080  0.40884275  0.09657065     0.35700
C893        C  0.34920689  0.40531548  0.12951032     0.35700
C894        C  0.39164768  0.38207414  0.04630569    -0.21800
C895        C  0.37753207  0.39729922  0.04830635    -0.21800
C896        C  0.40076719  0.37797351  0.17017187    -0.21800
C897        C  0.38424794  0.39029884  0.17239066    -0.21800
C898        C  0.42116491  0.33148659  0.09403479    -0.22800
C899        C  0.42359106  0.33158629  0.11490172    -0.22800
C900        C  0.33146600  0.41830151  0.10381174    -0.22800
C901        C  0.33178958  0.41605062  0.12466926    -0.22800
C902        C  0.40490186  0.35492103  0.06910217    -0.18200
C903        C  0.35431494  0.40819101  0.07581085    -0.18200
C904        C  0.35594056  0.40077218  0.14960644    -0.18200
C905        C  0.41317772  0.35499884  0.14279024    -0.18200
H906        H  0.40026427  0.37879385  0.03271815     0.14700
H907        H  0.37308620  0.40796930  0.03646297     0.14700
H908        H  0.41198078  0.37503399  0.18194865     0.14700
H909        H  0.38042998  0.39841864  0.18621935     0.14700
H910        H  0.42692070  0.32002362  0.08368212     0.13000
H911        H  0.43147056  0.32010997  0.12378741     0.13000
H912        H  0.31990103  0.42606467  0.09499263     0.13000
H913        H  0.32064316  0.42203086  0.13504459     0.13000
H914        H  0.37590418  0.37516746  0.09248394     0.26300
H915        H  0.37840966  0.37320875  0.12619248     0.26300
N916        N  0.36868944  0.17648350  0.87635644    -0.36500
N917        N  0.38974805  0.14667838  0.90217976    -0.57000
N918        N  0.37342293  0.11384454  0.87673124    -0.36500
N919        N  0.34993160  0.14357536  0.85293239    -0.57000
C920        C  0.37554907  0.18880874  0.89155944     0.27100
C921        C  0.35504156  0.18721945  0.86524104     0.27100
C922        C  0.38186211  0.10300211  0.89219591     0.27100
C923        C  0.36022283  0.10133236  0.86692883     0.27100
C924        C  0.39847796  0.16405319  0.90920320     0.35700
C925        C  0.40136964  0.13109159  0.90893454     0.35700
C926        C  0.34352224  0.15950724  0.84145878     0.35700
C927        C  0.34524773  0.12643488  0.84232405     0.35700
C928        C  0.36622409  0.20770346  0.89003087    -0.21800
C929        C  0.35338713  0.20674714  0.87337943    -0.21800
C930        C  0.37408488  0.08331011  0.89208904    -0.21800
C931        C  0.36055282  0.08220765  0.87609142    -0.21800
C932        C  0.41559840  0.15947506  0.92065969    -0.22800
C933        C  0.41747643  0.13860570  0.92041732    -0.22800
C934        C  0.33435279  0.15244010  0.82363551    -0.22800
C935        C  0.33538322  0.13148196  0.82421335    -0.22800
C936        C  0.39094605  0.18398686  0.90594545    -0.18200
C937        C  0.34490248  0.18028733  0.84730819    -0.18200
C938        C  0.34873307  0.10627685  0.84926759    -0.18200
C939        C  0.39694628  0.11012090  0.90593683    -0.18200
H940        H  0.36864070  0.22093907  0.89972457     0.14700
H941        H  0.34404639  0.21913755  0.86784583     0.14700
H942        H  0.37778584  0.07093897  0.90242190     0.14700
H943        H  0.35202953  0.06873575  0.87172797     0.14700
H944        H  0.42575771  0.17005834  0.92831342     0.13000
H945        H  0.42934201  0.12997091  0.92788432     0.13000
H946        H  0.32742654  0.16142033  0.81158705     0.13000
H947        H  0.32940850  0.12116047  0.81267721     0.13000
H948        H  0.37397794  0.16201737  0.87299426     0.26300
H949        H  0.37729025  0.12856010  0.87240341     0.26300
N950        N  0.16861343  0.38036072  0.88639783    -0.36500
N951        N  0.13548303  0.40140283  0.90608594    -0.57000
N952        N  0.10695284  0.38108173  0.87859378    -0.36500
N953        N  0.14012016  0.35811239  0.86065263    -0.57000
C954        C  0.17818667  0.38898591  0.90260459     0.27100
C955        C  0.18050506  0.36512366  0.87951200     0.27100
C956        C  0.09426267  0.38843083  0.89291965     0.27100
C957        C  0.09680516  0.36656659  0.86789018     0.27100
C958        C  0.15105508  0.41248835  0.91376544     0.35700
C959        C  0.11848957  0.41165651  0.91075115     0.35700
C960        C  0.15754282  0.35162400  0.85233552     0.35700
C961        C  0.12523380  0.35287471  0.84737617     0.35700
C962        C  0.19647343  0.37923406  0.90599179    -0.21800
C963        C  0.19792055  0.36413210  0.89142159    -0.21800
C964        C  0.07578862  0.37855770  0.89118601    -0.21800
C965        C  0.07727780  0.36500821  0.87521806    -0.21800
C966        C  0.14396060  0.42983820  0.92346257    -0.22800
C967        C  0.12329233  0.42930744  0.92156565    -0.22800
C968        C  0.15370856  0.34190639  0.83383983    -0.22800
C969        C  0.13322490  0.34270840  0.83067609    -0.22800
C970        C  0.17139430  0.40620713  0.91357855    -0.18200
C971        C  0.17666240  0.35309868  0.86192967    -0.18200
C972        C  0.10443919  0.35551836  0.85105072    -0.18200
C973        C  0.09868384  0.40430902  0.90700433    -0.18200
H974        H  0.20769892  0.38273656  0.91763963     0.14700
H975        H  0.21050530  0.35380391  0.88964250     0.14700
H976        H  0.06249210  0.38091969  0.90034111     0.14700
H977        H  0.06522269  0.35517090  0.86980329     0.14700
H978        H  0.15272640  0.44142716  0.93141246     0.13000
H979        H  0.11295644  0.44048742  0.92767327     0.13000
H980        H  0.16448656  0.33470881  0.82382498     0.13000
H981        H  0.12515587  0.33609219  0.81778446     0.13000
H982        H  0.15536918  0.38554441  0.87961041     0.26300
H983        H  0.12138252  0.38636726  0.87552227     0.26300
C984        C  0.70127929  0.72836141  0.20816693     0.80400
N985        N  0.71857076  0.72096293  0.20003421    -0.77900
C986        C  0.72821322  0.70476169  0.20854512     0.82800
N987        N  0.72025759  0.69576548  0.22535857    -0.77900
C988        C  0.70284572  0.70275245  0.23366989     0.82900
N989        N  0.69340530  0.71912590  0.22498815    -0.79600
N990        N  0.61735969  0.61801796  0.32830961    -0.36500
N991        N  0.63728456  0.64373439  0.35866803    -0.57000
N992        N  0.61958301  0.61917771  0.39156644    -0.36500
N993        N  0.60227384  0.59145314  0.36098974    -0.57000
C994        C  0.62897167  0.62964338  0.31594167     0.27100
C995        C  0.61051672  0.60196431  0.31712217     0.27100
C996        C  0.63350121  0.63012842  0.40221930     0.27100
C997        C  0.61402569  0.60331791  0.40354188     0.27100
C998        C  0.64176671  0.65478831  0.34185435     0.35700
C999        C  0.64359306  0.65483353  0.37497032     0.35700
C1000       C  0.59266239  0.58282356  0.34474868     0.35700
C1001       C  0.59352606  0.58376173  0.37795023     0.35700
C1002       C  0.62923222  0.62101708  0.29654801    -0.21800
C1003       C  0.61763558  0.60356986  0.29729468    -0.21800
C1004       C  0.63651538  0.62131948  0.42131477    -0.21800
C1005       C  0.62422300  0.60442763  0.42214450    -0.21800
C1006       C  0.65108574  0.67296909  0.34751570    -0.22800
C1007       C  0.65228574  0.67297557  0.36849325    -0.22800
C1008       C  0.57795654  0.56937242  0.35141643    -0.22800
C1009       C  0.57840853  0.57005970  0.37240997    -0.22800
C1010       C  0.63894390  0.64809238  0.32143384    -0.18200
C1011       C  0.59731113  0.58636734  0.32395740    -0.18200
C1012       C  0.59971018  0.58805762  0.39836441    -0.18200
C1013       C  0.64336106  0.64805748  0.39547946    -0.18200
H1014       H  0.63698729  0.62668073  0.28320719     0.14700
H1015       H  0.61474467  0.59325817  0.28461977     0.14700
H1016       H  0.64662084  0.62644321  0.43340878     0.14700
H1017       H  0.62311590  0.59400833  0.43492982     0.14700
H1018       H  0.65681498  0.68479988  0.33756631     0.13000
H1019       H  0.65912237  0.68480752  0.37789276     0.13000
H1020       H  0.56787036  0.56009256  0.34212377     0.13000
H1021       H  0.56870965  0.56139424  0.38241922     0.13000
H1022       H  0.61351715  0.62129958  0.34325450     0.26300
H1023       H  0.61362547  0.62276250  0.37729142     0.26300
C1024       C  0.73092838  0.54137432  0.03790401     0.80400
N1025       N  0.72189317  0.52568028  0.04800614    -0.77900
C1026       C  0.70331881  0.51883123  0.04207125     0.82800
N1027       N  0.69391815  0.52773136  0.02581251    -0.77900
C1028       C  0.70284790  0.54317663  0.01535935     0.82900
N1029       N  0.72129298  0.55003286  0.02161509    -0.79600
C1030       C  0.51493487  0.70748615  0.03451112     0.80400
N1031       N  0.52252882  0.72542501  0.04171358    -0.77900
C1032       C  0.53977988  0.73338906  0.03396754     0.82800
N1033       N  0.54944566  0.72316873  0.01884201    -0.77900
C1034       C  0.54199493  0.70518198  0.01153075     0.82900
N1035       N  0.52481408  0.69743336  0.01951120    -0.79600
C1036       C  0.54228900  0.50936132  0.20391390     0.80400
N1037       N  0.54897218  0.51876969  0.22133648    -0.77900
C1038       C  0.54019948  0.53639409  0.22784472     0.82800
N1039       N  0.52480457  0.54454447  0.21665416    -0.77900
C1040       C  0.51802526  0.53528870  0.19929368     0.82900
N1041       N  0.52686293  0.51776457  0.19307977    -0.79600
N1042       N  0.42376010  0.61745194  0.11259631    -0.36500
N1043       N  0.39379358  0.60266678  0.14163403    -0.57000
N1044       N  0.36198073  0.62003376  0.11587274    -0.36500
N1045       N  0.39185965  0.63627414  0.08783010    -0.57000
C1046       C  0.43579445  0.61165141  0.12838510     0.27100
C1047       C  0.43480818  0.62993981  0.10059957     0.27100
C1048       C  0.35056867  0.61233934  0.13106408     0.27100
C1049       C  0.34955579  0.63031241  0.10301392     0.27100
C1050       C  0.41030709  0.59362353  0.14971411     0.35700
C1051       C  0.37772430  0.59471844  0.15136829     0.35700
C1052       C  0.40778687  0.64161089  0.07632773     0.35700
C1053       C  0.37515924  0.64239672  0.07759026     0.35700
C1054       C  0.45483428  0.62013991  0.12612720    -0.21800
C1055       C  0.45420009  0.63171758  0.10865591    -0.21800
C1056       C  0.33058057  0.61773520  0.12779031    -0.21800
C1057       C  0.32991087  0.62890736  0.11009685    -0.21800
C1058       C  0.40475995  0.58004265  0.16492179    -0.22800
C1059       C  0.38410110  0.58075018  0.16598209    -0.22800
C1060       C  0.40123540  0.65127086  0.05862361    -0.22800
C1061       C  0.38057671  0.65188509  0.05947329    -0.22800
C1062       C  0.43036915  0.59832624  0.14441127    -0.18200
C1063       C  0.42817182  0.63949589  0.08233802    -0.18200
C1064       C  0.35517526  0.64056621  0.08481645    -0.18200
C1065       C  0.35736231  0.59989159  0.14741470    -0.18200
H1066       H  0.46786049  0.61829326  0.13607139     0.14700
H1067       H  0.46665498  0.64049176  0.10261982     0.14700
H1068       H  0.31767985  0.61379947  0.13701737     0.14700
H1069       H  0.31631271  0.63498643  0.10315816     0.14700
H1070       H  0.41456563  0.57071157  0.17437101     0.13000
H1071       H  0.37484176  0.57193170  0.17628933     0.13000
H1072       H  0.41039393  0.65768682  0.04660331     0.13000
H1073       H  0.37077010  0.65886778  0.04816443     0.13000
H1074       H  0.40922354  0.61237564  0.10968063     0.26300
H1075       H  0.37720362  0.61797590  0.11415637     0.26300
N1076       N  0.63826559  0.41806360  0.13749402    -0.36500
N1077       N  0.66265784  0.38919905  0.11516113    -0.57000
N1078       N  0.64562144  0.35543685  0.13868302    -0.36500
N1079       N  0.62365598  0.38464357  0.16345294    -0.57000
C1080       C  0.65063206  0.43109756  0.12749606     0.27100
C1081       C  0.62952822  0.42866776  0.15275305     0.27100
C1082       C  0.66108225  0.34599443  0.12928632     0.27100
C1083       C  0.64013448  0.34356109  0.15458759     0.27100
C1084       C  0.66528288  0.40596440  0.10343505     0.35700
C1085       C  0.66866469  0.37310270  0.10384703     0.35700
C1086       C  0.61163875  0.39990200  0.16999910     0.35700
C1087       C  0.61555826  0.36709003  0.17058282     0.35700
C1088       C  0.64950230  0.45032412  0.13635137    -0.21800
C1089       C  0.63607917  0.44882511  0.15221468    -0.21800
C1090       C  0.66545922  0.32784665  0.13933903    -0.21800
C1091       C  0.65207989  0.32623224  0.15524002    -0.21800
C1092       C  0.67303790  0.40054576  0.08460778    -0.22800
C1093       C  0.67504239  0.37968473  0.08479833    -0.22800
C1094       C  0.59609953  0.39206026  0.18168467    -0.22800
C1095       C  0.59856525  0.37125089  0.18202834    -0.22800
C1096       C  0.66227652  0.42621733  0.11014026    -0.18200
C1097       C  0.61503510  0.42090453  0.16646288    -0.18200
C1098       C  0.62381124  0.34743739  0.16766279    -0.18200
C1099       C  0.67057613  0.35292230  0.11131416    -0.18200
H1100       H  0.65740059  0.46405194  0.13178607     0.14700
H1101       H  0.63165803  0.46118886  0.16222039     0.14700
H1102       H  0.67695621  0.31681033  0.13552013     0.14700
H1103       H  0.65124043  0.31375981  0.16605726     0.14700
H1104       H  0.67697703  0.41059921  0.07212729     0.13000
H1105       H  0.68091588  0.37045443  0.07247300     0.13000
H1106       H  0.58426004  0.40046001  0.18923995     0.13000
H1107       H  0.58901976  0.36044985  0.18992427     0.13000
H1108       H  0.63510739  0.40302306  0.13356882     0.26300
H1109       H  0.63837142  0.36860097  0.13373081     0.26300
N1110       N  0.63262506  0.63201254  0.91520961    -0.36500
N1111       N  0.61182363  0.65670329  0.88433452    -0.57000
N1112       N  0.63044586  0.63275619  0.85218198    -0.36500
N1113       N  0.65376828  0.61019907  0.88304377    -0.57000
C1114       C  0.62412141  0.64644553  0.92713098     0.27100
C1115       C  0.64724629  0.62285875  0.92647461     0.27100
C1116       C  0.62288073  0.64848595  0.84107173     0.27100
C1117       C  0.64377649  0.62282464  0.84026248     0.27100
C1118       C  0.60139569  0.66234819  0.90103752     0.35700
C1119       C  0.60141333  0.66383608  0.86798120     0.35700
C1120       C  0.66108474  0.59992855  0.89945911     0.35700
C1121       C  0.65863450  0.59914499  0.86631383     0.35700
C1122       C  0.63320714  0.64627970  0.94634487    -0.21800
C1123       C  0.64783544  0.63143422  0.94591922    -0.21800
C1124       C  0.63142697  0.64845268  0.82182446    -0.21800
C1125       C  0.64432906  0.63211195  0.82118338    -0.21800
C1126       C  0.58432931  0.67321078  0.89530099    -0.22800
C1127       C  0.58433263  0.67414202  0.87433754    -0.22800
C1128       C  0.67103014  0.58247491  0.89311012    -0.22800
C1129       C  0.66943949  0.58194414  0.87212964    -0.22800
C1130       C  0.60783810  0.65918518  0.92142704    -0.18200
C1131       C  0.65946055  0.60637093  0.92006577    -0.18200
C1132       C  0.65471035  0.60507566  0.84581347    -0.18200
C1133       C  0.60781840  0.66230710  0.84748001    -0.18200
H1134       H  0.62965320  0.65583917  0.95934599     0.14700
H1135       H  0.65771270  0.62735885  0.95855486     0.14700
H1136       H  0.62855102  0.65896423  0.80937748     0.14700
H1137       H  0.65308194  0.62776294  0.80803069     0.14700
H1138       H  0.57315938  0.67994651  0.90519558     0.13000
H1139       H  0.57308339  0.68162087  0.86487062     0.13000
H1140       H  0.67865452  0.57129809  0.90259686     0.13000
H1141       H  0.67581168  0.57037352  0.86229023     0.13000
H1142       H  0.62794189  0.62797604  0.90058705     0.26300
H1143       H  0.62601229  0.62828020  0.86665757     0.26300
N1144       N  0.82365289  0.63666884  0.11181669    -0.36500
N1145       N  0.85526745  0.61090816  0.09511699    -0.57000
N1146       N  0.88520704  0.63243328  0.12045573    -0.36500
N1147       N  0.85320858  0.65590583  0.13933906    -0.57000
C1148       C  0.81251785  0.62242819  0.10168823     0.27100
C1149       C  0.81136386  0.64591996  0.12539370     0.27100
C1150       C  0.89609180  0.61632612  0.11382893     0.27100
C1151       C  0.89508186  0.64035635  0.13688399     0.27100
C1152       C  0.84005015  0.60586134  0.08209972     0.35700
C1153       C  0.87238554  0.60358438  0.08681930     0.35700
C1154       C  0.83698036  0.66767047  0.14326179     0.35700
C1155       C  0.86938927  0.66581097  0.14735717     0.35700
C1156       C  0.79285206  0.62283501  0.10873737    -0.21800
C1157       C  0.79212701  0.63764348  0.12368487    -0.21800
C1158       C  0.91319828  0.61413549  0.12603807    -0.21800
C1159       C  0.91250268  0.62922765  0.14065296    -0.21800
C1160       C  0.84750510  0.59515650  0.06551523    -0.22800
C1161       C  0.86801009  0.59367519  0.06852692    -0.22800
C1162       C  0.84281582  0.68506005  0.15393933    -0.22800
C1163       C  0.86338006  0.68396193  0.15640950    -0.22800
C1164       C  0.81939983  0.60960156  0.08572743    -0.18200
C1165       C  0.81681705  0.66216725  0.13871522    -0.18200
C1166       C  0.88921684  0.65784877  0.14804905    -0.18200
C1167       C  0.89160895  0.60430733  0.09637220    -0.18200
H1168       H  0.78030695  0.61340344  0.10367390     0.14700
H1169       H  0.77891012  0.64184044  0.13230349     0.14700
H1170       H  0.92502405  0.60287917  0.12456944     0.14700
H1171       H  0.92361984  0.63172549  0.15265820     0.14700
H1172       H  0.83902729  0.58885787  0.05272294     0.13000
H1173       H  0.87845349  0.58595136  0.05853756     0.13000
H1174       H  0.83323103  0.69718458  0.15949707     0.59400
H1175       H  0.87277080  0.69512185  0.16423842     0.13000
H1176       H  0.83853299  0.64056385  0.10890858     0.26300
H1177       H  0.87239763  0.63838834  0.11343487     0.26300
N1178       N  0.63266908  0.82577096  0.10935405    -0.36500
N1179       N  0.64908130  0.85472678  0.13906072    -0.57000
N1180       N  0.62972695  0.88824271  0.11618373    -0.36500
N1181       N  0.61085356  0.85911874  0.08856103    -0.57000
C1182       C  0.64158433  0.81263507  0.12265303     0.27100
C1183       C  0.62016057  0.81474358  0.09707498     0.27100
C1184       C  0.63571754  0.89804449  0.13344300     0.27100
C1185       C  0.61637682  0.90054691  0.10639309     0.27100
C1186       C  0.65996156  0.83811499  0.14453087     0.35700
C1187       C  0.65771361  0.87091451  0.14862943     0.35700
C1188       C  0.60469268  0.84337682  0.07662226     0.35700
C1189       C  0.60451670  0.87643291  0.07925280     0.35700
C1190       C  0.63500549  0.79292085  0.11844050    -0.21800
C1191       C  0.62151243  0.79423963  0.10236935    -0.21800
C1192       C  0.62608346  0.91679274  0.13462120    -0.21800
C1193       C  0.61412906  0.91849698  0.11746169    -0.21800
C1194       C  0.67543484  0.84375204  0.15783374    -0.22800
C1195       C  0.67404507  0.86452679  0.16039072    -0.22800
C1196       C  0.59399723  0.85071455  0.05982833    -0.22800
C1197       C  0.59397877  0.87164533  0.06143795    -0.22800
C1198       C  0.65577486  0.81781382  0.13825765    -0.18200
C1199       C  0.60781723  0.82242272  0.08094374    -0.18200
C1200       C  0.60682059  0.89638813  0.08735289    -0.18200
C1201       C  0.65066005  0.89127774  0.14748470    -0.18200
H1202       H  0.63935494  0.77899448  0.12621235     0.14700
H1203       H  0.61358534  0.78147274  0.09540328     0.14700
H1204       H  0.62771094  0.92826430  0.14648442     0.14700
H1205       H  0.60491092  0.93159162  0.11371142     0.14700
H1206       H  0.68663888  0.83394385  0.16487476     0.13000
H1207       H  0.68399606  0.87384692  0.16978475     0.13000
H1208       H  0.58685955  0.84190498  0.04770937     0.13000
H1209       H  0.58662759  0.88208556  0.05093858     0.13000
H1210       H  0.63541247  0.84124514  0.10829031     0.26300
H1211       H  0.63545290  0.87460152  0.11077588     0.26300
O1212       O  0.72791674  0.48594216  0.69779462    -0.78400
C1213       C  0.76941203  0.54043624  0.69707341     0.82700
O1214       O  0.78374219  0.47009282  0.74093093    -0.79500
O1215       O  0.77846728  0.53914070  0.76242507    -0.81000
O1216       O  0.70614723  0.53118721  0.75355332    -0.80800
O1217       O  0.70366958  0.48902154  0.72086950    -0.79400
Zn1218     Zn  0.75236209  0.49958942  0.71028779     1.55700
O1219       O  0.73201648  0.55303773  0.75279364    -0.80800
Cd1220     Cd  0.71898194  0.50381241  0.74469388     1.59700
Cd1221     Cd  0.76493397  0.48952419  0.75772316     1.59600
O1222       O  0.71587566  0.48551517  0.76999962    -0.80800
O1223       O  0.74815852  0.50700513  0.73844659    -1.91300
Cd1224     Cd  0.75564619  0.53624027  0.74132488     1.59900
O1225       O  0.74629616  0.47264866  0.77718662    -0.80700
O1226       O  0.76707867  0.54827745  0.71473390    -0.79400
C1227       C  0.78568472  0.46931391  0.72152586     0.83200
C1228       C  0.70995969  0.48243825  0.70367374     0.82800
O1229       O  0.76296017  0.52254805  0.69288048    -0.78300
C1230       C  0.71383701  0.54870854  0.75733704     0.83600
O1231       O  0.77458011  0.47969127  0.70951740    -0.78400
C1232       C  0.72737673  0.47395486  0.78052482     0.83700
C1233       C  0.78728673  0.52738505  0.77513896     0.84100
O1234       O  0.78344320  0.50826198  0.77597705    -0.80900
O1235       O  0.95741101  0.01847445  0.48219736    -0.78400
C1236       C  0.96821035  0.96267865  0.51974057     0.82700
O1237       O  0.00356742  0.03975281  0.53318532    -0.79500
O1238       O  0.03301359  0.97147331  0.52117412    -0.81000
O1239       O  0.01493917  0.98383511  0.45106328    -0.80800
O1240       O  0.97768854  0.02011851  0.45542815    -0.79400
Zn1241     Zn  0.97433419  0.00610987  0.50476212     1.55700
O1242       O  0.01913581  0.96010370  0.47515546    -0.80800
Cd1243     Cd  0.00421452  0.00859819  0.46749479     1.59700
Cd1244     Cd  0.02088388  0.02085914  0.51402900     1.59600
O1245       O  0.02512447  0.03125315  0.46353552    -0.80800
O1246       O  0.00211751  0.00259907  0.49725085    -1.91300
Cd1247     Cd  0.00907415  0.97347147  0.50154190     1.59900
O1248       O  0.03824223  0.03900324  0.49421602    -0.80700
O1249       O  0.98591505  0.95713491  0.51480688    -0.79400
C1250       C  0.98462967  0.03872236  0.53663306     0.83200
C1251       C  0.96080446  0.02375202  0.46380503     0.82800
O1252       O  0.96176590  0.98056693  0.51581807    -0.78300
C1253       C  0.02113632  0.96631800  0.45683848     0.83600
O1254       O  0.97322112  0.02616460  0.52718856    -0.78400
C1255       C  0.03742577  0.04130860  0.47478065     0.83700
C1256       C  0.04354579  0.98363191  0.53210312     0.84100
O1257       O  0.04062774  0.00294984  0.53209456    -0.80900
C1258       C  0.54781686  0.05215067  0.73012390     0.80400
N1259       N  0.55752109  0.03564837  0.72234406    -0.77900
C1260       C  0.55065837  0.02623152  0.70515039     0.82800
N1261       N  0.53396360  0.03353848  0.69561809    -0.77900
C1262       C  0.52402463  0.05001127  0.70300508     0.82900
N1263       N  0.53099497  0.05934067  0.72036054    -0.79600
C1264       C  0.73756298  0.04115671  0.54087341     0.80400
N1265       N  0.72906710  0.02414356  0.54904175    -0.77900
C1266       C  0.71167225  0.01619594  0.54114309     0.82800
N1267       N  0.70274385  0.02545641  0.52481027    -0.77900
C1268       C  0.71105747  0.04243848  0.51635520     0.82900
N1269       N  0.72841635  0.05023901  0.52455760    -0.79600
C1270       C  0.53891690  0.22732829  0.54040762     0.80400
N1271       N  0.52169628  0.21895831  0.54813453    -0.77900
C1272       C  0.51198883  0.20356704  0.53785656     0.82800
N1273       N  0.51969083  0.19669861  0.52000395    -0.77900
C1274       C  0.53679715  0.20468360  0.51222507     0.82900
N1275       N  0.54639088  0.21996548  0.52251664    -0.79600
N1276       N  0.62146783  0.11982594  0.42065355    -0.36500
N1277       N  0.63561023  0.09053444  0.39031745    -0.57000
N1278       N  0.61793836  0.11596401  0.35811424    -0.36500
N1279       N  0.60128429  0.14334215  0.38844267    -0.57000
C1280       C  0.62834342  0.10474349  0.43301334     0.27100
C1281       C  0.60982066  0.13226489  0.43207214     0.27100
C1282       C  0.62287725  0.09902850  0.34750193     0.27100
C1283       C  0.60469606  0.12659378  0.34645859     0.27100
C1284       C  0.64610854  0.08390542  0.40683174     0.35700
C1285       C  0.64434604  0.08199599  0.37380950     0.35700
C1286       C  0.59772568  0.15581482  0.40446087     0.35700
C1287       C  0.59633398  0.15394373  0.37141263     0.35700
C1288       C  0.62123938  0.10779717  0.45265226    -0.21800
C1289       C  0.60950767  0.12511266  0.45205337    -0.21800
C1290       C  0.61269008  0.09886681  0.32885361    -0.21800
C1291       C  0.60130568  0.11633782  0.32812983    -0.21800
C1292       C  0.66133684  0.07079238  0.40083077    -0.22800
C1293       C  0.66032061  0.06970325  0.37987640    -0.22800
C1294       C  0.59016022  0.17434504  0.39760157    -0.22800
C1295       C  0.58929079  0.17316590  0.37663738    -0.22800
C1296       C  0.64170989  0.08894035  0.42731306    -0.18200
C1297       C  0.60012215  0.15033538  0.42523592    -0.18200
C1298       C  0.59673329  0.14594618  0.35135047    -0.18200
C1299       C  0.63759792  0.08460943  0.35341505    -0.18200
H1300       H  0.62426715  0.09856421  0.46605623     0.14700
H1301       H  0.60174598  0.13175017  0.46493636     0.14700
H1302       H  0.61365395  0.08750647  0.31684295     0.14700
H1303       H  0.59184490  0.12100006  0.31539421     0.14700
H1304       H  0.67214901  0.06294770  0.41052136     0.13000
H1305       H  0.67023835  0.06087485  0.37025895     0.13000
H1306       H  0.58559508  0.18730255  0.40675346     0.13000
H1307       H  0.58378880  0.18498354  0.36646325     0.13000
H1308       H  0.62538300  0.12209954  0.40552771     0.26300
H1309       H  0.62445759  0.12073696  0.37181977     0.26300
N1310       N  0.41855979  0.12606740  0.62521514    -0.36500
N1311       N  0.38528278  0.14395351  0.60168682    -0.57000
N1312       N  0.35654951  0.11903682  0.62449861    -0.36500
N1313       N  0.38975500  0.10337116  0.64986539    -0.57000
C1314       C  0.42872439  0.14090273  0.61523974     0.27100
C1315       C  0.43117452  0.11822156  0.63956445     0.27100
C1316       C  0.34377094  0.13142063  0.61406038     0.27100
C1317       C  0.34616228  0.11088262  0.64026217     0.27100
C1318       C  0.40086711  0.15294013  0.59194676     0.35700
C1319       C  0.36843260  0.14820689  0.59067673     0.35700
C1320       C  0.40698157  0.09464167  0.65673915     0.35700
C1321       C  0.37443568  0.09204653  0.65727767     0.35700
C1322       C  0.44828375  0.14206445  0.62303976    -0.21800
C1323       C  0.44980350  0.12780565  0.63835986    -0.21800
C1324       C  0.32487222  0.13062235  0.62295838    -0.21800
C1325       C  0.32646528  0.11798148  0.63962158    -0.21800
C1326       C  0.39383456  0.16321656  0.57478452    -0.22800
C1327       C  0.37334081  0.16016029  0.57392817    -0.22800
C1328       C  0.40261246  0.07775830  0.66867684    -0.22800
C1329       C  0.38200096  0.07605102  0.66894691    -0.22800
C1330       C  0.42119201  0.15302141  0.59888375    -0.18200
C1331       C  0.42658829  0.10234177  0.65344497    -0.18200
C1332       C  0.35371813  0.09673703  0.65485978    -0.18200
C1333       C  0.34850449  0.14312966  0.59650836    -0.18200
H1334       H  0.46035672  0.15204019  0.61817865     0.14700
H1335       H  0.46315557  0.12485657  0.64755890     0.14700
H1336       H  0.31128293  0.13846402  0.61818299     0.14700
H1337       H  0.31437983  0.11448216  0.65005434     0.14700
H1338       H  0.40249674  0.17222211  0.56411639     0.13000
H1339       H  0.36318645  0.16653047  0.56255782     0.13000
H1340       H  0.41316995  0.06776985  0.67646151     0.13000
H1341       H  0.37356921  0.06439563  0.67692821     0.13000
H1342       H  0.40406009  0.12108619  0.62200752     0.26300
H1343       H  0.37127527  0.11569657  0.62054825     0.26300
C1344       C  0.71345171  0.20605215  0.72660638     0.80400
N1345       N  0.72962165  0.20070971  0.71518618    -0.77900
C1346       C  0.73473710  0.21184552  0.69839189     0.82800
N1347       N  0.72335359  0.22838107  0.69304775    -0.77900
C1348       C  0.70715654  0.23382317  0.70446123     0.82900
N1349       N  0.70243641  0.22254488  0.72106435    -0.79600
N1350       N  0.61313009  0.32664238  0.63360680    -0.36500
N1351       N  0.63480541  0.36106994  0.65270739    -0.57000
N1352       N  0.60907952  0.38959322  0.63103718    -0.36500
N1353       N  0.58930602  0.35506576  0.60984519    -0.57000
C1354       C  0.62968176  0.31704742  0.64105604     0.27100
C1355       C  0.60402138  0.31372693  0.62015719     0.27100
C1356       C  0.62324057  0.40237705  0.63902030     0.27100
C1357       C  0.60050949  0.39921729  0.61484834     0.27100
C1358       C  0.64358451  0.34537710  0.66276307     0.35700
C1359       C  0.64003613  0.37827244  0.66297212     0.35700
C1360       C  0.57891196  0.33775217  0.60537546     0.35700
C1361       C  0.57826445  0.37077310  0.60243334     0.35700
C1362       C  0.63089906  0.29766716  0.63244936    -0.21800
C1363       C  0.61465545  0.29554833  0.61934855    -0.21800
C1364       C  0.62336308  0.42049578  0.62809813    -0.21800
C1365       C  0.60926223  0.41840297  0.61268289    -0.21800
C1366       C  0.65461243  0.35262560  0.67940867    -0.22800
C1367       C  0.65227525  0.37348416  0.67961195    -0.22800
C1368       C  0.56119077  0.34246660  0.59501762    -0.22800
C1369       C  0.56080340  0.36338991  0.59310228    -0.22800
C1370       C  0.64322377  0.32485370  0.65607898    -0.18200
C1371       C  0.58609288  0.31772967  0.60897740    -0.18200
C1372       C  0.58457876  0.39148588  0.60237988    -0.18200
C1373       C  0.63571843  0.39829211  0.65619329    -0.18200
H1374       H  0.64223048  0.28613324  0.63539528     0.14700
H1375       H  0.61116820  0.28218684  0.61016485     0.14700
H1376       H  0.63282343  0.43377085  0.63070941     0.14700
H1377       H  0.60592693  0.42981208  0.60118562     0.14700
H1378       H  0.66365371  0.34383314  0.69008696     0.13000
H1379       H  0.65931413  0.38395468  0.69038211     0.13000
H1380       H  0.54994571  0.33191534  0.58908788     0.13000
H1381       H  0.54912382  0.37216566  0.58549449     0.13000
H1382       H  0.60782175  0.34082020  0.63814982     0.26300
H1383       H  0.60489115  0.37547489  0.63686940     0.26300
N1384       N  0.61916626  0.92393076  0.61612088    -0.36500
N1385       N  0.64164836  0.89093542  0.59660685    -0.57000
N1386       N  0.62106178  0.86138368  0.62243173    -0.36500
N1387       N  0.60084590  0.89464171  0.64387372    -0.57000
C1388       C  0.63261339  0.93487031  0.60522743     0.27100
C1389       C  0.61078434  0.93675028  0.62985181     0.27100
C1390       C  0.63484914  0.84919871  0.61350468     0.27100
C1391       C  0.61382670  0.85124444  0.63878635     0.27100
C1392       C  0.64720757  0.90656477  0.58438051     0.35700
C1393       C  0.64767157  0.87355627  0.58729995     0.35700
C1394       C  0.59012370  0.91138923  0.64895874     0.35700
C1395       C  0.59153687  0.87855460  0.65264279     0.35700
C1396       C  0.63257550  0.95500980  0.61194478    -0.21800
C1397       C  0.61876320  0.95621033  0.62741366    -0.21800
C1398       C  0.63618508  0.83092282  0.62414809    -0.21800
C1399       C  0.62305588  0.83228284  0.64019686    -0.21800
C1400       C  0.65718562  0.89912391  0.56741062    -0.22800
C1401       C  0.65745457  0.87820519  0.56923848    -0.22800
C1402       C  0.57408347  0.90596435  0.66127743    -0.22800
C1403       C  0.57492872  0.88514651  0.66354119    -0.22800
C1404       C  0.64427839  0.92750938  0.58878021    -0.18200
C1405       C  0.59537080  0.93163654  0.64375021    -0.18200
C1406       C  0.59843050  0.85813842  0.65189773    -0.18200
C1407       C  0.64541826  0.85363140  0.59538615    -0.18200
H1408       H  0.64145983  0.96762055  0.60619993     0.14700
H1409       H  0.61498067  0.96993285  0.63577973     0.14700
H1410       H  0.64559025  0.81789693  0.62073686     0.14700
H1411       H  0.62047978  0.82051956  0.65149900     0.14700
H1412       H  0.66367246  0.90786157  0.55505430     0.13000
H1413       H  0.66428774  0.86765933  0.55860163     0.13000
H1414       H  0.56302362  0.91594959  0.66808943     0.13000
H1415       H  0.56455697  0.87594893  0.67232156     0.13000
H1416       H  0.61510219  0.90881316  0.61354229     0.26300
H1417       H  0.61597548  0.87533525  0.61692140     0.26300
N1418       N  0.83349282  0.13453633  0.61399403    -0.36500
N1419       N  0.86437267  0.15401888  0.63944399    -0.57000
N1420       N  0.89592814  0.13137950  0.61801103    -0.36500
N1421       N  0.86465980  0.10950942  0.59486114    -0.57000
C1422       C  0.82180535  0.14335761  0.62840449     0.27100
C1423       C  0.82201499  0.12039515  0.60413595     0.27100
C1424       C  0.90660264  0.13937767  0.63388617     0.27100
C1425       C  0.90672668  0.11550750  0.61060548     0.27100
C1426       C  0.84815990  0.16474646  0.64573958     0.35700
C1427       C  0.88081244  0.16347717  0.64746044     0.35700
C1428       C  0.84868404  0.10425882  0.58287294     0.35700
C1429       C  0.88126612  0.10211100  0.58557763     0.35700
C1430       C  0.80257935  0.13494180  0.62741597    -0.21800
C1431       C  0.80269490  0.12052192  0.61208115    -0.21800
C1432       C  0.92455246  0.12877020  0.63630913    -0.21800
C1433       C  0.92457934  0.11365859  0.62172924    -0.21800
C1434       C  0.85432032  0.18103813  0.65788869    -0.22800
C1435       C  0.87500292  0.18028839  0.65891438    -0.22800
C1436       C  0.85514058  0.09338382  0.56596821    -0.22800
C1437       C  0.87577100  0.09207856  0.56764038    -0.22800
C1438       C  0.82782009  0.15904412  0.64219228    -0.18200
C1439       C  0.82824669  0.10783217  0.58771519    -0.18200
C1440       C  0.90111020  0.10282138  0.59389486    -0.18200
C1441       C  0.90081329  0.15610235  0.64620821    -0.18200
H1442       H  0.78976377  0.13874445  0.63679949     0.14700
H1443       H  0.78999681  0.11110257  0.60741389     0.14700
H1444       H  0.93630397  0.13139561  0.64765179     0.14700
H1445       H  0.93636274  0.10243711  0.61977821     0.14700
H1446       H  0.84487224  0.19210091  0.66550265     0.13000
H1447       H  0.88462958  0.19066178  0.66751395     0.13000
H1448       H  0.84592488  0.08685478  0.55382760     0.13000
H1449       H  0.88558320  0.08440812  0.55697267     0.13000
H1450       H  0.84821161  0.13847642  0.61046841     0.26300
H1451       H  0.88240289  0.13691444  0.61214977     0.26300
N1452       N  0.63721388  0.12446826  0.82839355    -0.36500
N1453       N  0.65607279  0.15115438  0.85899055    -0.57000
N1454       N  0.63719174  0.12741494  0.89172617    -0.36500
N1455       N  0.61615152  0.10248173  0.86097282    -0.57000
C1456       C  0.64566977  0.13856395  0.81600564     0.27100
C1457       C  0.62386599  0.11358273  0.81696870     0.27100
C1458       C  0.64566489  0.14258371  0.90305332     0.27100
C1459       C  0.62522634  0.11629265  0.90417145     0.27100
C1460       C  0.66579923  0.15791615  0.84222698     0.35700
C1461       C  0.66532892  0.15990650  0.87531634     0.35700
C1462       C  0.60858808  0.09213439  0.84466576     0.35700
C1463       C  0.60935386  0.09292694  0.87789860     0.35700
C1464       C  0.63799570  0.13625890  0.79631131    -0.21800
C1465       C  0.62431650  0.12048815  0.79689371    -0.21800
C1466       C  0.63913523  0.14090184  0.92308680    -0.21800
C1467       C  0.62661586  0.12417772  0.92386814    -0.21800
C1468       C  0.68123259  0.17114860  0.84787378    -0.22800
C1469       C  0.68102650  0.17232223  0.86879864    -0.22800
C1470       C  0.59661222  0.07610197  0.85124010    -0.22800
C1471       C  0.59704685  0.07662049  0.87222022    -0.22800
C1472       C  0.66033313  0.15329247  0.82178907    -0.18200
C1473       C  0.61150724  0.09734681  0.82388840    -0.18200
C1474       C  0.61325163  0.09911141  0.89842357    -0.18200
C1475       C  0.65941359  0.15766128  0.89600004    -0.18200
H1476       H  0.64178091  0.14506348  0.78287527     0.14700
H1477       H  0.61563468  0.11486024  0.78393435     0.14700
H1478       H  0.64293362  0.15062015  0.93597379     0.14700
H1479       H  0.61930582  0.11866965  0.93750948     0.14700
H1480       H  0.69156918  0.17913604  0.83794991     0.13000
H1481       H  0.69134933  0.18129502  0.87812124     0.13000
H1482       H  0.58819115  0.06530018  0.84190573     0.13000
H1483       H  0.58889543  0.06631182  0.88209533     0.13000
H1484       H  0.64083231  0.12198812  0.84356955     0.26300
H1485       H  0.63983009  0.12450316  0.87651325     0.26300
C1486       C  0.02323986  0.70381135  0.53069320     0.80400
N1487       N  0.03071341  0.72046675  0.54067503    -0.77900
C1488       C  0.04652703  0.73120938  0.53295381     0.82800
N1489       N  0.05480906  0.72510562  0.51494033    -0.77900
C1490       C  0.04728612  0.70857335  0.50468053     0.82900
N1491       N  0.03160967  0.69802543  0.51276068    -0.79600
N1492       N  0.13699318  0.63856344  0.40621414    -0.36500
N1493       N  0.15800027  0.61604931  0.37434950    -0.57000
N1494       N  0.13772811  0.64101938  0.34312644    -0.36500
N1495       N  0.11889448  0.66536664  0.37529960    -0.57000
C1496       C  0.14913094  0.62663986  0.41791118     0.27100
C1497       C  0.12904360  0.65309289  0.41848574     0.27100
C1498       C  0.15159199  0.63140966  0.33153610     0.27100
C1499       C  0.13024293  0.65670579  0.33195376     0.27100
C1500       C  0.16343631  0.60433660  0.39051162     0.35700
C1501       C  0.16470246  0.60642841  0.35743195     0.35700
C1502       C  0.10901609  0.67215548  0.39200006     0.35700
C1503       C  0.10911101  0.67311196  0.35878374     0.35700
C1504       C  0.14873949  0.63356050  0.43797291    -0.21800
C1505       C  0.13612722  0.65020412  0.43833989    -0.21800
C1506       C  0.15270422  0.64094524  0.31263016    -0.21800
C1507       C  0.13926765  0.65691362  0.31291081    -0.21800
C1508       C  0.17399773  0.58736998  0.38384912    -0.22800
C1509       C  0.17484625  0.58871638  0.36291641    -0.22800
C1510       C  0.09312375  0.68460666  0.38604351    -0.22800
C1511       C  0.09305566  0.68503927  0.36506349    -0.22800
C1512       C  0.15980489  0.60910872  0.41127981    -0.18200
C1513       C  0.11456029  0.66799433  0.41258819    -0.18200
C1514       C  0.11496373  0.67039512  0.33813959    -0.18200
C1515       C  0.16277296  0.61385300  0.33717493    -0.18200
H1516       H  0.15656290  0.62718817  0.45109402     0.14700
H1517       H  0.13236365  0.65888673  0.45186213     0.14700
H1518       H  0.16221121  0.63684210  0.29991301     0.14700
H1519       H  0.13648910  0.66749557  0.30049276     0.14700
H1520       H  0.18063454  0.57539700  0.39310987     0.13000
H1521       H  0.18223255  0.57794636  0.35290381     0.13000
H1522       H  0.08259541  0.69256673  0.39573884     0.13000
H1523       H  0.08239302  0.69329629  0.35556423     0.13000
H1524       H  0.13341272  0.63617579  0.39096418     0.26300
H1525       H  0.13287786  0.63650842  0.35743915     0.26300
C1526       C  0.21132970  0.73382215  0.70193869     0.80400
N1527       N  0.20306619  0.72731640  0.71979598    -0.77900
C1528       C  0.21221148  0.71241785  0.73108891     0.82800
N1529       N  0.22962056  0.70394191  0.72421502    -0.77900
C1530       C  0.23791388  0.71012350  0.70632774     0.82900
N1531       N  0.22864938  0.72504411  0.69536050    -0.79600
C1532       C  0.20687551  0.52480361  0.53006351     0.80400
N1533       N  0.22362407  0.53144963  0.54039269    -0.77900
C1534       C  0.23439933  0.54771419  0.53350227     0.82800
N1535       N  0.22823638  0.55731986  0.51619304    -0.77900
C1536       C  0.21164002  0.55099366  0.50559928     0.82900
N1537       N  0.20095527  0.53468645  0.51263628    -0.79600
N1538       N  0.33162633  0.63178899  0.61468626    -0.36500
N1539       N  0.36266095  0.60664120  0.59569952    -0.57000
N1540       N  0.39340966  0.62668689  0.62144012    -0.36500
N1541       N  0.36173439  0.64896826  0.64285589    -0.57000
C1542       C  0.31992485  0.61917338  0.60317769     0.27100
C1543       C  0.31943658  0.64143127  0.62806678     0.27100
C1544       C  0.40428111  0.61133330  0.61318802     0.27100
C1545       C  0.40385850  0.63374041  0.63793112     0.27100
C1546       C  0.34698130  0.60203736  0.58306420     0.35700
C1547       C  0.37941647  0.59916404  0.58678698     0.35700
C1548       C  0.34577990  0.66084672  0.64765126     0.35700
C1549       C  0.37824071  0.65820286  0.65102744     0.35700
C1550       C  0.29997728  0.62104558  0.60913841    -0.21800
C1551       C  0.29968300  0.63502656  0.62485889    -0.21800
C1552       C  0.42195205  0.60873474  0.62444176    -0.21800
C1553       C  0.42166494  0.62283797  0.64007314    -0.21800
C1554       C  0.35374151  0.59127176  0.56621487    -0.22800
C1555       C  0.37428246  0.58953957  0.56850558    -0.22800
C1556       C  0.35213323  0.67754231  0.65910020    -0.22800
C1557       C  0.37267780  0.67595099  0.66112680    -0.22800
C1558       C  0.32652396  0.60664856  0.58687590    -0.18200
C1559       C  0.32544080  0.65660133  0.64240152    -0.18200
C1560       C  0.39810121  0.65022672  0.65064707    -0.18200
C1561       C  0.39916993  0.60015259  0.59529122    -0.18200
H1562       H  0.28692591  0.61322311  0.60277583     0.14700
H1563       H  0.28638074  0.64001022  0.63290788     0.14700
H1564       H  0.43381476  0.59775868  0.62170958     0.14700
H1565       H  0.43326651  0.62480991  0.65169700     0.14700
H1566       H  0.34481126  0.58530795  0.55357307     0.13000
H1567       H  0.38424864  0.58200144  0.55789666     0.13000
H1568       H  0.34294539  0.68969875  0.66523797     0.13000
H1569       H  0.38239253  0.68667746  0.66915702     0.13000
H1570       H  0.34688076  0.63445266  0.61279313     0.26300
H1571       H  0.38016399  0.63274443  0.61548983     0.26300
C1572       C  0.04042995  0.54736893  0.72829596     0.80400
N1573       N  0.02394736  0.55664157  0.71997569    -0.77900
C1574       C  0.01489204  0.54889567  0.70287883     0.82800
N1575       N  0.02254005  0.53182256  0.69410645    -0.77900
C1576       C  0.03905174  0.52250056  0.70214928     0.82900
N1577       N  0.04797758  0.53034178  0.71925168    -0.79600
N1578       N  0.12524498  0.42987013  0.61826097    -0.36500
N1579       N  0.14117242  0.39933086  0.59053221    -0.57000
N1580       N  0.11840414  0.36766799  0.61237822    -0.36500
N1581       N  0.09989396  0.39881480  0.63756621    -0.57000
C1582       C  0.13395646  0.44195090  0.60406106     0.27100
C1583       C  0.11230574  0.44164274  0.62889042     0.27100
C1584       C  0.12510708  0.35707791  0.59605953     0.27100
C1585       C  0.10290545  0.35690291  0.62039012     0.27100
C1586       C  0.15309718  0.41530336  0.58539322     0.35700
C1587       C  0.14977613  0.38244314  0.58253769     0.35700
C1588       C  0.09699204  0.41459129  0.65056024     0.35700
C1589       C  0.09307805  0.38189287  0.64713599     0.35700
C1590       C  0.12654477  0.46166586  0.60574978    -0.21800
C1591       C  0.11281204  0.46146113  0.62138004    -0.21800
C1592       C  0.11389407  0.33927646  0.59374655    -0.21800
C1593       C  0.09977500  0.33923921  0.60900814    -0.21800
C1594       C  0.16911938  0.40859824  0.57374827    -0.22800
C1595       C  0.16703573  0.38776251  0.57196100    -0.22800
C1596       C  0.08816991  0.40772751  0.66841091    -0.22800
C1597       C  0.08574742  0.38698929  0.66627523    -0.22800
C1598       C  0.14928686  0.43593570  0.59046630    -0.18200
C1599       C  0.10099236  0.43527311  0.64596454    -0.18200
C1600       C  0.09219370  0.36215334  0.63825190    -0.18200
C1601       C  0.14181804  0.36240719  0.58392121    -0.18200
H1602       H  0.13068182  0.47485003  0.59671873     0.14700
H1603       H  0.10431086  0.47448226  0.62673380     0.14700
H1604       H  0.11570560  0.32752588  0.58223572     0.14700
H1605       H  0.08858330  0.32745034  0.61149108     0.14700
H1606       H  0.18104917  0.41775518  0.56721962     0.13000
H1607       H  0.17705105  0.37769728  0.56375104     0.13000
H1608       H  0.08385404  0.41673322  0.68155715     0.13000
H1609       H  0.07926819  0.37685197  0.67751869     0.13000
H1610       H  0.12889689  0.41479395  0.62146083     0.26300
H1611       H  0.12491856  0.38084317  0.61838361     0.26300
N1612       N  0.92219885  0.62400373  0.60945203    -0.36500
N1613       N  0.89225859  0.65013783  0.59007984    -0.57000
N1614       N  0.86027100  0.62755582  0.61066962    -0.36500
N1615       N  0.89034414  0.60324284  0.63204845    -0.57000
C1616       C  0.93422843  0.63883012  0.60178966     0.27100
C1617       C  0.93319893  0.61364355  0.62353106     0.27100
C1618       C  0.84988972  0.64356723  0.60295583     0.27100
C1619       C  0.84896873  0.61942014  0.62573525     0.27100
C1620       C  0.90874296  0.65657204  0.57994953     0.35700
C1621       C  0.87612464  0.65780810  0.57996483     0.35700
C1622       C  0.90606920  0.59132805  0.63754405     0.35700
C1623       C  0.87353933  0.59370459  0.63865483     0.35700
C1624       C  0.95318785  0.63765588  0.61089796    -0.21800
C1625       C  0.95256193  0.62173302  0.62455484    -0.21800
C1626       C  0.83164447  0.64543872  0.61297319    -0.21800
C1627       C  0.83106238  0.63020775  0.62735156    -0.21800
C1628       C  0.90307618  0.66853957  0.56339118    -0.22800
C1629       C  0.88236056  0.66929074  0.56337525    -0.22800
C1630       C  0.89925337  0.57417664  0.64783981    -0.22800
C1631       C  0.87860649  0.57571855  0.64859864    -0.22800
C1632       C  0.92883503  0.65297363  0.58632469    -0.18200
C1633       C  0.92653738  0.59661152  0.63495597    -0.18200
C1634       C  0.85394533  0.60200488  0.63746542    -0.18200
C1635       C  0.85600871  0.65605903  0.58657359    -0.18200
H1636       H  0.96617014  0.64725915  0.60800385     0.14700
H1637       H  0.96497916  0.61673266  0.63418357     0.14700
H1638       H  0.81992458  0.65661659  0.61021612     0.14700
H1639       H  0.81875069  0.62738039  0.63771914     0.14700
H1640       H  0.91285322  0.67612893  0.55261598     0.13000
H1641       H  0.87298397  0.67765748  0.55264408     0.13000
H1642       H  0.90824615  0.56206517  0.65450738     0.13000
H1643       H  0.86852962  0.56503014  0.65595139     0.13000
H1644       H  0.90763237  0.62048253  0.60468205     0.26300
H1645       H  0.87379170  0.62191645  0.60519797     0.26300
N1646       N  0.12611514  0.82893010  0.61575008    -0.36500
N1647       N  0.11110857  0.86193029  0.58988564    -0.57000
N1648       N  0.12873322  0.89208020  0.61824863    -0.36500
N1649       N  0.14591430  0.85866146  0.64224802    -0.57000
C1650       C  0.11996340  0.81835866  0.59900245     0.27100
C1651       C  0.13849057  0.81659061  0.62671269     0.27100
C1652       C  0.12392099  0.90389663  0.60195011     0.27100
C1653       C  0.14317642  0.90212007  0.62915662     0.27100
C1654       C  0.10069509  0.84602158  0.58166531     0.35700
C1655       C  0.10204706  0.87913142  0.58302221     0.35700
C1656       C  0.14889772  0.84162545  0.65356827     0.35700
C1657       C  0.15091999  0.87470796  0.65434981     0.35700
C1658       C  0.12839964  0.79899492  0.59936656    -0.21800
C1659       C  0.14005507  0.79785684  0.61686540    -0.21800
C1660       C  0.13521618  0.92175603  0.60262547    -0.21800
C1661       C  0.14744456  0.92059300  0.61971634    -0.21800
C1662       C  0.08510105  0.85310478  0.56935976    -0.22800
C1663       C  0.08585040  0.87407340  0.57033260    -0.22800
C1664       C  0.15595800  0.84688885  0.67292354    -0.22800
C1665       C  0.15709694  0.86782504  0.67346188    -0.22800
C1666       C  0.10582919  0.82522747  0.58421850    -0.18200
C1667       C  0.14729508  0.82141696  0.64596770    -0.18200
C1668       C  0.15225310  0.89523300  0.64761480    -0.18200
C1669       C  0.10912773  0.89927346  0.58685805    -0.18200
H1670       H  0.12616402  0.78681662  0.58833366     0.14700
H1671       H  0.14844005  0.78457665  0.62184227     0.14700
H1672       H  0.13486476  0.93424356  0.59179084     0.14700
H1673       H  0.15833054  0.93204350  0.62450396     0.14700
H1674       H  0.07434489  0.84410680  0.56057497     0.13000
H1675       H  0.07569016  0.88439220  0.56245447     0.13000
H1676       H  0.16032166  0.83675524  0.68524828     0.13000
H1677       H  0.16239173  0.87692364  0.68629626     0.13000
H1678       H  0.12106798  0.84327075  0.62011828     0.26300
H1679       H  0.12185415  0.87835751  0.62214744     0.26300
N1680       N  0.11782182  0.63812205  0.82461512    -0.36500
N1681       N  0.14383035  0.65607146  0.85563126    -0.57000
N1682       N  0.12432014  0.63079397  0.88691568    -0.36500
N1683       N  0.10075185  0.61030488  0.85525318    -0.57000
C1684       C  0.13129588  0.64812096  0.81276670     0.27100
C1685       C  0.10831374  0.62418365  0.81259869     0.27100
C1686       C  0.14010198  0.63855742  0.89765529     0.27100
C1687       C  0.11740477  0.61446101  0.89742745     0.27100
C1688       C  0.14827609  0.66867657  0.83992805     0.35700
C1689       C  0.15140285  0.66498429  0.87271258     0.35700
C1690       C  0.08838066  0.60604183  0.83923360     0.35700
C1691       C  0.09207581  0.60202688  0.87195005     0.35700
C1692       C  0.13019284  0.64053897  0.79296488    -0.21800
C1693       C  0.11571479  0.62544582  0.79285555    -0.21800
C1694       C  0.14309850  0.62719088  0.91533423    -0.21800
C1695       C  0.12875612  0.61198435  0.91519185    -0.21800
C1696       C  0.15883449  0.68560615  0.84703013    -0.22800
C1697       C  0.16080752  0.68327836  0.86782857    -0.22800
C1698       C  0.07184569  0.59486754  0.84575579    -0.22800
C1699       C  0.07421446  0.59228584  0.86649726    -0.22800
C1700       C  0.14404689  0.66440046  0.81913565    -0.18200
C1701       C  0.09243020  0.61104989  0.81864426    -0.18200
C1702       C  0.10063505  0.60222075  0.89184491    -0.18200
C1703       C  0.15138687  0.65608950  0.89239219    -0.18200
H1704       H  0.13892228  0.64536182  0.77992293     0.14700
H1705       H  0.11115393  0.61641643  0.77969329     0.14700
H1706       H  0.15444335  0.62959670  0.92714168     0.14700
H1707       H  0.12691523  0.60041151  0.92684416     0.14700
H1708       H  0.16466037  0.69820916  0.83813910     0.13000
H1709       H  0.16850835  0.69373142  0.87814848     0.13000
H1710       H  0.05943505  0.58906085  0.83652391     0.13000
H1711       H  0.06399717  0.58413074  0.87641181     0.13000
H1712       H  0.11442676  0.64134515  0.83973830     0.26300
H1713       H  0.11802865  0.63696715  0.87371741     0.26300
C1714       C  0.79165883  0.26908359  0.28698216     0.80400
N1715       N  0.77458692  0.27829748  0.29359716    -0.77900
C1716       C  0.76685240  0.29470662  0.28356484     0.82800
N1717       N  0.77642060  0.30191581  0.26680344    -0.77900
C1718       C  0.79352433  0.29293176  0.25999653     0.82900
N1719       N  0.80110523  0.27656766  0.27022337    -0.79600
N1720       N  0.67356273  0.37363332  0.37321151    -0.36500
N1721       N  0.64282464  0.39842047  0.39227729    -0.57000
N1722       N  0.61194718  0.37801625  0.36725172    -0.36500
N1723       N  0.64312440  0.35541545  0.34609382    -0.57000
C1724       C  0.68522175  0.38736608  0.38337029     0.27100
C1725       C  0.68534910  0.36431744  0.35930799     0.27100
C1726       C  0.60145442  0.39385849  0.37501069     0.27100
C1727       C  0.60157832  0.37110904  0.35068103     0.27100
C1728       C  0.65856578  0.40301875  0.40477077     0.35700
C1729       C  0.62611436  0.40527632  0.40166607     0.35700
C1730       C  0.65895916  0.34317677  0.34202036     0.35700
C1731       C  0.62656248  0.34571912  0.33869327     0.35700
C1732       C  0.70474354  0.38661874  0.37594699    -0.21800
C1733       C  0.70482035  0.37204904  0.36074361    -0.21800
C1734       C  0.58411994  0.39695899  0.36335830    -0.21800
C1735       C  0.58425293  0.38265499  0.34792003    -0.21800
C1736       C  0.65186285  0.41305459  0.42209617    -0.22800
C1737       C  0.63124937  0.41445721  0.42014134    -0.22800
C1738       C  0.65251713  0.32575487  0.33176723    -0.22800
C1739       C  0.63195246  0.32727624  0.32980203    -0.22800
C1740       C  0.67898246  0.39959309  0.39997690    -0.18200
C1741       C  0.67927576  0.34809571  0.34636259    -0.18200
C1742       C  0.60686937  0.35399661  0.33868781    -0.18200
C1743       C  0.60655484  0.40485362  0.39294981    -0.18200
H1744       H  0.71766703  0.39545535  0.38110220     0.14700
H1745       H  0.71779133  0.36750168  0.35192140     0.14700
H1746       H  0.57254697  0.40832552  0.36575029     0.14700
H1747       H  0.57282952  0.38090544  0.33608057     0.14700
H1748       H  0.66089602  0.41898282  0.43467698     0.13000
H1749       H  0.62122935  0.42170567  0.43090405     0.13000
H1750       H  0.66167636  0.31326567  0.32627493     0.13000
H1751       H  0.62214104  0.31608764  0.32257527     0.13000
H1752       H  0.65873400  0.36984656  0.37644213     0.26300
H1753       H  0.62479563  0.37149949  0.37367104     0.26300
C1754       C  0.76923762  0.46251444  0.45182489     0.80400
N1755       N  0.77729531  0.48081343  0.44642439    -0.77900
C1756       C  0.79430998  0.48805397  0.45575949     0.82800
N1757       N  0.80332385  0.47667775  0.47064349    -0.77900
C1758       C  0.79546962  0.45829553  0.47618341     0.82900
N1759       N  0.77848102  0.45133232  0.46665864    -0.79600
C1760       C  0.96178171  0.49269848  0.29411275     0.80400
N1761       N  0.95282646  0.48245726  0.27833279    -0.77900
C1762       C  0.96116595  0.46507735  0.27072490     0.82800
N1763       N  0.97859272  0.45787922  0.27922626    -0.77900
C1764       C  0.98773047  0.46798557  0.29500884     0.82900
N1765       N  0.97917638  0.48531197  0.30230099    -0.79600
C1766       C  0.98416643  0.30028532  0.45463571     0.80400
N1767       N  0.97635272  0.28425635  0.44384140    -0.77900
C1768       C  0.95956762  0.27427083  0.45039729     0.82800
N1769       N  0.95044083  0.28065065  0.46782144    -0.77900
C1770       C  0.95798896  0.29672325  0.47872625     0.82900
N1771       N  0.97485518  0.30637675  0.47203247    -0.79600
N1772       N  0.08375005  0.37911851  0.37262026    -0.36500
N1773       N  0.11438428  0.40600756  0.35503376    -0.57000
N1774       N  0.14536501  0.38603694  0.37999466    -0.36500
N1775       N  0.11399585  0.36164262  0.40005948    -0.57000
C1776       C  0.07189833  0.39228987  0.36207817     0.27100
C1777       C  0.07174556  0.36878349  0.38566839     0.27100
C1778       C  0.15593678  0.40206363  0.37250540     0.27100
C1779       C  0.15572731  0.37881446  0.39640931     0.27100
C1780       C  0.09864634  0.41042793  0.34245799     0.35700
C1781       C  0.13101815  0.41404357  0.34628406     0.35700
C1782       C  0.09831345  0.34906365  0.40426457     0.35700
C1783       C  0.13065946  0.35295339  0.40836442     0.35700
C1784       C  0.05207088  0.39014418  0.36834844    -0.21800
C1785       C  0.05197424  0.37531635  0.38321633    -0.21800
C1786       C  0.17330553  0.40493165  0.38419992    -0.21800
C1787       C  0.17317611  0.39027481  0.39926257    -0.21800
C1788       C  0.10522727  0.42157624  0.32580986    -0.22800
C1789       C  0.12572609  0.42372030  0.32812450    -0.22800
C1790       C  0.10498159  0.33243320  0.41549133    -0.22800
C1791       C  0.12546156  0.33483978  0.41802221    -0.22800
C1792       C  0.07825450  0.40545868  0.34624095    -0.18200
C1793       C  0.07791464  0.35287479  0.39895454    -0.18200
C1794       C  0.15028934  0.36170346  0.40843816    -0.18200
C1795       C  0.15072741  0.41374259  0.35499816    -0.18200
H1796       H  0.03897108  0.39830253  0.36269934     0.14700
H1797       H  0.03879166  0.36988040  0.39121170     0.14700
H1798       H  0.18486047  0.41645231  0.38215937     0.14700
H1799       H  0.18463128  0.38832520  0.41102038     0.14700
H1800       H  0.09620261  0.42752580  0.31327991     0.13000
H1801       H  0.13554901  0.43158312  0.31760213     0.13000
H1802       H  0.09601996  0.31990570  0.42129555     0.13000
H1803       H  0.13536749  0.32444817  0.42613805     0.13000
H1804       H  0.09894493  0.37651991  0.37020026     0.26300
H1805       H  0.13237234  0.37970436  0.37363502     0.26300
N1806       N  0.88346249  0.38157210  0.57611705    -0.36500
N1807       N  0.86095889  0.40631987  0.60550088    -0.57000
N1808       N  0.88410652  0.38876311  0.63909047    -0.36500
N1809       N  0.90907308  0.36678609  0.60943153    -0.57000
C1810       C  0.87356550  0.39428523  0.56317599     0.27100
C1811       C  0.89817969  0.37233579  0.56532991     0.27100
C1812       C  0.87411062  0.40370640  0.64907973     0.27100
C1813       C  0.89979607  0.38308038  0.65116657     0.27100
C1814       C  0.85018983  0.41023803  0.58829139     0.35700
C1815       C  0.84984271  0.41315821  0.62130673     0.35700
C1816       C  0.91621278  0.35495998  0.59413225     0.35700
C1817       C  0.91690577  0.35923041  0.62703347     0.35700
C1818       C  0.88179635  0.39273651  0.54380968    -0.21800
C1819       C  0.89725544  0.37883583  0.54514800    -0.21800
C1820       C  0.88347247  0.40738355  0.66783063    -0.21800
C1821       C  0.89961053  0.39428663  0.66918608    -0.21800
C1822       C  0.83219048  0.41971169  0.59313385    -0.22800
C1823       C  0.83186596  0.42137556  0.61405852    -0.22800
C1824       C  0.92886519  0.34004454  0.60202051    -0.22800
C1825       C  0.92929573  0.34272866  0.62284527    -0.22800
C1826       C  0.85703181  0.40691990  0.56817390    -0.18200
C1827       C  0.91225683  0.35796611  0.57304105    -0.18200
C1828       C  0.91379521  0.36747171  0.64679025    -0.18200
C1829       C  0.85649163  0.41374711  0.64197544    -0.18200
H1830       H  0.87716539  0.40077724  0.53009158     0.14700
H1831       H  0.90686811  0.37422733  0.53268657     0.14700
H1832       H  0.87919912  0.41840337  0.67935540     0.14700
H1833       H  0.91009623  0.39321890  0.68195093     0.14700
H1834       H  0.82056923  0.42497995  0.58265585     0.13000
H1835       H  0.81990726  0.42820684  0.62287585     0.13000
H1836       H  0.93698220  0.32845566  0.59364344     0.13000
H1837       H  0.93782605  0.33358563  0.63365400     0.13000
H1838       H  0.87996287  0.37883943  0.59125906     0.26300
H1839       H  0.87991068  0.38208036  0.62529959     0.26300
N1840       N  0.89381288  0.36460250  0.17392246    -0.36500
N1841       N  0.87282286  0.34420745  0.14018439    -0.57000
N1842       N  0.89291779  0.37153796  0.11151284    -0.36500
N1843       N  0.91575999  0.39003832  0.14502445    -0.57000
C1844       C  0.88531822  0.34882533  0.18407850     0.27100
C1845       C  0.90743367  0.37354083  0.18667710     0.27100
C1846       C  0.88452274  0.35761479  0.09869567     0.27100
C1847       C  0.90786560  0.38097093  0.10119871     0.27100
C1848       C  0.86285068  0.33567619  0.15595926     0.35700
C1849       C  0.86191590  0.33995784  0.12310103     0.35700
C1850       C  0.92068318  0.39981431  0.16262838     0.35700
C1851       C  0.92100054  0.40265394  0.12959693     0.35700
C1852       C  0.89357820  0.34785729  0.20367249    -0.21800
C1853       C  0.90752582  0.36340508  0.20528664    -0.21800
C1854       C  0.89411004  0.35829458  0.07996137    -0.21800
C1855       C  0.90905536  0.37279336  0.08165091    -0.21800
C1856       C  0.84584924  0.32540734  0.14872797    -0.22800
C1857       C  0.84520005  0.32823108  0.12793863    -0.22800
C1858       C  0.92936945  0.41860988  0.15834637    -0.22800
C1859       C  0.92936994  0.42049753  0.13745357    -0.22800
C1860       C  0.86921138  0.33642161  0.17670788    -0.18200
C1861       C  0.91861061  0.39149204  0.18245564    -0.18200
C1862       C  0.91950690  0.39764781  0.10854333    -0.18200
C1863       C  0.86750735  0.34546602  0.10306197    -0.18200
H1864       H  0.88972302  0.33738469  0.21580688     0.14700
H1865       H  0.91636707  0.36706522  0.21882609     0.14700
H1866       H  0.89077445  0.34934720  0.06641194     0.14700
H1867       H  0.91941808  0.37699789  0.06968182     0.14700
H1868       H  0.83505415  0.31666281  0.15743357     0.13000
H1869       H  0.83390377  0.32203318  0.11755596     0.13000
H1870       H  0.93519150  0.42981585  0.16909661     0.13000
H1871       H  0.93500275  0.43351616  0.12905387     0.13000
H1872       H  0.88957234  0.36988507  0.15960549     0.26300
H1873       H  0.88769421  0.37538953  0.12592675     0.26300
N1874       N  0.86541526  0.58592083  0.36762437    -0.36500
N1875       N  0.88684069  0.61607776  0.34354762    -0.57000
N1876       N  0.86401311  0.64885633  0.36312447    -0.36500
N1877       N  0.84090737  0.61851422  0.38535126    -0.57000
C1878       C  0.87416376  0.57365755  0.35355929     0.27100
C1879       C  0.85069396  0.57496267  0.37671638     0.27100
C1880       C  0.87333713  0.65926896  0.34808029     0.27100
C1881       C  0.84848434  0.66051780  0.36959816     0.27100
C1882       C  0.89751337  0.59929381  0.33844380     0.35700
C1883       C  0.89748972  0.63235751  0.33692912     0.35700
C1884       C  0.83516803  0.60277383  0.39735195     0.35700
C1885       C  0.83361080  0.63570678  0.39405345     0.35700
C1886       C  0.86505062  0.55454407  0.35397093    -0.21800
C1887       C  0.85026398  0.55536634  0.36857656    -0.21800
C1888       C  0.86385818  0.67795118  0.34522842    -0.21800
C1889       C  0.84808453  0.67865104  0.35866682    -0.21800
C1890       C  0.91491806  0.60495320  0.32827924    -0.22800
C1891       C  0.91493785  0.62588932  0.32739470    -0.22800
C1892       C  0.82406536  0.60996423  0.41369110    -0.22800
C1893       C  0.82309216  0.63082617  0.41161271    -0.22800
C1894       C  0.89082716  0.57895905  0.34119985    -0.18200
C1895       C  0.83824383  0.58190561  0.39276189    -0.18200
C1896       C  0.83513530  0.65557597  0.38560703    -0.18200
C1897       C  0.89072356  0.65279593  0.33755370    -0.18200
H1898       H  0.86874212  0.54127211  0.34486759     0.14700
H1899       H  0.84037359  0.54289691  0.37275863     0.14700
H1900       H  0.86783206  0.68992796  0.33460849     0.14700
H1901       H  0.83760228  0.69118733  0.36025486     0.14700
H1902       H  0.92624567  0.59510083  0.32175245     0.13000
H1903       H  0.92624233  0.63521722  0.32003913     0.13000
H1904       H  0.81711472  0.60107520  0.42567255     0.13000
H1905       H  0.81536978  0.64119486  0.42177749     0.13000
H1906       H  0.86989670  0.60059994  0.37165655     0.26300
H1907       H  0.86868590  0.63504439  0.36928507     0.26300
N1908       N  0.87935218  0.17454763  0.36997460    -0.36500
N1909       N  0.85550214  0.14450469  0.34718190    -0.57000
N1910       N  0.87511843  0.11160039  0.36963665    -0.36500
N1911       N  0.89656877  0.14195707  0.39489114    -0.57000
C1912       C  0.86705277  0.18700456  0.35908911     0.27100
C1913       C  0.88759371  0.18576413  0.38535856     0.27100
C1914       C  0.85927938  0.10134340  0.36124881     0.27100
C1915       C  0.88292513  0.09975018  0.38464997     0.27100
C1916       C  0.85193239  0.16106467  0.33540423     0.35700
C1917       C  0.84805419  0.12824209  0.33679744     0.35700
C1918       C  0.90695034  0.15799689  0.40285365     0.35700
C1919       C  0.90629533  0.12490367  0.40113205     0.35700
C1920       C  0.86774805  0.20651028  0.36740894    -0.21800
C1921       C  0.88060440  0.20570544  0.38404196    -0.21800
C1922       C  0.85712639  0.08267292  0.37105457    -0.21800
C1923       C  0.87226160  0.08153781  0.38558790    -0.21800
C1924       C  0.84207139  0.15532259  0.31746725    -0.22800
C1925       C  0.83963260  0.13451361  0.31834127    -0.22800
C1926       C  0.92304916  0.15108435  0.41460644    -0.22800
C1927       C  0.92271600  0.13012933  0.41341726    -0.22800
C1928       C  0.85583825  0.18144991  0.34138940    -0.18200
C1929       C  0.90194334  0.17881474  0.39998864    -0.18200
C1930       C  0.89991165  0.10465478  0.39694623    -0.18200
C1931       C  0.84723176  0.10808665  0.34453565    -0.18200
H1932       H  0.85984376  0.21996275  0.36205756     0.14700
H1933       H  0.88447060  0.21844418  0.39393675     0.14700
H1934       H  0.84589607  0.07098004  0.36805639     0.14700
H1935       H  0.87488760  0.06886992  0.39588579     0.14700
H1936       H  0.83685143  0.16513286  0.30519996     0.13000
H1937       H  0.83229544  0.12510308  0.30681269     0.13000
H1938       H  0.93399642  0.16019236  0.42302243     0.13000
H1939       H  0.93321087  0.11991365  0.42098097     0.13000
H1940       H  0.88265845  0.15951462  0.36643191     0.26300
H1941       H  0.88104670  0.12543850  0.36479876     0.26300
O1942       O  0.01977989  0.27256672  0.79029917    -0.78400
C1943       C  0.96903241  0.23250519  0.78408281     0.82700
O1944       O  0.04173312  0.22133794  0.74254892    -0.79500
O1945       O  0.97156955  0.22901590  0.71967096    -0.81000
O1946       O  0.98403979  0.30113298  0.73304548    -0.80800
O1947       O  0.02248702  0.29819222  0.76827247    -0.79400
Zn1948     Zn  0.01021975  0.24907795  0.77378227     1.55700
O1949       O  0.96016027  0.27710615  0.73114425    -0.80800
Cd1950     Cd  0.00940603  0.28553193  0.74234060     1.59700
Cd1951     Cd  0.02111746  0.23952735  0.72623785     1.59600
O1952       O  0.02872332  0.28967387  0.71861479    -0.80800
O1953       O  0.00404554  0.25596621  0.74593015    -1.91300
Cd1954     Cd  0.97471090  0.25097004  0.74171552     1.59900
O1955       O  0.03746288  0.25892592  0.70691098    -0.80700
O1956       O  0.96110391  0.23843891  0.76727178    -0.79400
C1957       C  0.04436538  0.22056590  0.76190944     0.83200
C1958       C  0.02528190  0.29063390  0.78603409     0.82800
O1959       O  0.98753089  0.23566296  0.78829191    -0.78300
C1960       C  0.96620580  0.29542787  0.72830005     0.83600
O1961       O  0.03323067  0.23031910  0.77418070    -0.78400
C1962       C  0.03821462  0.27841912  0.70612070     0.83700
C1963       C  0.98308970  0.21898006  0.70790836     0.84100
O1964       O  0.00225385  0.22116174  0.70807809    -0.80900
C1965       C  0.03880983  0.20686303  0.00837791     0.80400
N1966       N  0.02251666  0.19752570  0.01670335    -0.77900
C1967       C  0.01385787  0.20500737  0.03385559     0.82800
N1968       N  0.02166855  0.22208934  0.04273791    -0.77900
C1969       C  0.03788937  0.23175795  0.03463150     0.82900
N1970       N  0.04647606  0.22398856  0.01746201    -0.79600
N1971       N  0.12601154  0.32875514  0.11098773    -0.36500
N1972       N  0.14637803  0.35948417  0.13629859    -0.57000
N1973       N  0.12506781  0.39145727  0.11427187    -0.36500
N1974       N  0.10674094  0.36096828  0.08709354    -0.57000
C1975       C  0.14004704  0.31694791  0.12037130     0.27100
C1976       C  0.11755839  0.31754888  0.09572631     0.27100
C1977       C  0.13818793  0.40268074  0.12561922     0.27100
C1978       C  0.11845409  0.40348899  0.09884480     0.27100
C1979       C  0.15298901  0.34248335  0.14587689     0.35700
C1980       C  0.15090843  0.37536120  0.14876231     0.35700
C1981       C  0.09665277  0.34476228  0.07916716     0.35700
C1982       C  0.09747717  0.37788055  0.07984118     0.35700
C1983       C  0.14025218  0.29782884  0.11115151    -0.21800
C1984       C  0.12599692  0.29816950  0.09569980    -0.21800
C1985       C  0.13974722  0.42217104  0.11746170    -0.21800
C1986       C  0.12735608  0.42265292  0.10050767    -0.21800
C1987       C  0.16206271  0.34761028  0.16441531    -0.22800
C1988       C  0.16063519  0.36845302  0.16630000    -0.22800
C1989       C  0.08108265  0.35142563  0.06652188    -0.22800
C1990       C  0.08164029  0.37242765  0.06691433    -0.22800
C1991       C  0.15200920  0.32254499  0.13760746    -0.18200
C1992       C  0.10199882  0.32406987  0.08223301    -0.18200
C1993       C  0.10364726  0.39815682  0.08407620    -0.18200
C1994       C  0.14806431  0.39610077  0.14365811    -0.18200
H1995       H  0.14954144  0.28486011  0.11525656     0.14700
H1996       H  0.12231902  0.28555633  0.08557711     0.14700
H1997       H  0.14878390  0.43480509  0.12314407     0.14700
H1998       H  0.12499761  0.43573304  0.09066077     0.14700
H1999       H  0.16909912  0.33743099  0.17538301     0.13000
H2000       H  0.16651172  0.37751303  0.17890647     0.13000
H2001       H  0.07055394  0.34213412  0.05776149     0.13000
H2002       H  0.07159388  0.38252048  0.05858933     0.13000
H2003       H  0.12173835  0.34331307  0.11529637     0.26300
H2004       H  0.11995899  0.37687786  0.11764869     0.26300
C2005       C  0.04391380  0.04205032  0.23184707     0.80400
N2006       N  0.05170249  0.02657984  0.22057032    -0.77900
C2007       C  0.04254599  0.02057658  0.20285189     0.82800
N2008       N  0.02565670  0.03037497  0.19628725    -0.77900
C2009       C  0.01790894  0.04610482  0.20724084     0.82900
N2010       N  0.02707630  0.05178402  0.22504566    -0.79600
C2011       C  0.20276307  0.23216576  0.20164328     0.80400
N2012       N  0.19609936  0.22383712  0.21935969    -0.77900
C2013       C  0.20583334  0.20786047  0.22813519     0.82800
N2014       N  0.22239835  0.20013941  0.21899190    -0.77900
C2015       C  0.22943033  0.20825455  0.20133931     0.82900
N2016       N  0.21950751  0.22431301  0.19265470    -0.79600
N2017       N  0.14183011  0.11024434  0.32538129    -0.36500
N2018       N  0.11369171  0.09521388  0.35619979    -0.57000
N2019       N  0.13162706  0.12244455  0.38659323    -0.36500
N2020       N  0.15726375  0.14004192  0.35500973    -0.57000
C2021       C  0.12882227  0.09923537  0.31363357     0.27100
C2022       C  0.15140725  0.12347281  0.31285495     0.27100
C2023       C  0.11522571  0.11592332  0.39691096     0.27100
C2024       C  0.13880710  0.13916125  0.39644555     0.27100
C2025       C  0.11051574  0.08113044  0.34134985     0.35700
C2026       C  0.10484303  0.08785492  0.37322240     0.35700
C2027       C  0.16952061  0.14437051  0.33921190     0.35700
C2028       C  0.16493710  0.15006059  0.37143691     0.35700
C2029       C  0.13047924  0.10526700  0.29336759    -0.21800
C2030       C  0.14475674  0.12048845  0.29287416    -0.21800
C2031       C  0.11211630  0.12853570  0.41365767    -0.21800
C2032       C  0.12706970  0.14311111  0.41344072    -0.21800
C2033       C  0.09958354  0.06478468  0.34892643    -0.22800
C2034       C  0.09601181  0.06902460  0.36912583    -0.22800
C2035       C  0.18491935  0.15736988  0.34555045    -0.22800
C2036       C  0.18206627  0.16091295  0.36600510    -0.22800
C2037       C  0.11566292  0.08370760  0.32060214    -0.18200
C2038       C  0.16614195  0.13806150  0.31880847    -0.18200
C2039       C  0.15597593  0.15067831  0.39093841    -0.18200
C2040       C  0.10339780  0.09851565  0.39201798    -0.18200
H2041       H  0.12208177  0.09953963  0.28026050     0.14700
H2042       H  0.14946556  0.12864072  0.27933462     0.14700
H2043       H  0.10030860  0.12740216  0.42490710     0.14700
H2044       H  0.12896919  0.15534643  0.42447410     0.14700
H2045       H  0.09449611  0.05133224  0.34067457     0.13000
H2046       H  0.08771599  0.05940109  0.37955762     0.13000
H2047       H  0.19682877  0.16380636  0.33634024     0.13000
H2048       H  0.19135213  0.17064897  0.37567474     0.13000
H2049       H  0.14447280  0.10834144  0.34093896     0.26300
H2050       H  0.13814772  0.11539244  0.37409906     0.26300
C2051       C  0.23098636  0.05052913  0.03855807     0.80400
N2052       N  0.22108797  0.05808029  0.02192903    -0.77900
C2053       C  0.20333614  0.04963298  0.01553656     0.82800
N2054       N  0.19551697  0.03354490  0.02593514    -0.77900
C2055       C  0.20530407  0.02592461  0.04258480     0.82900
N2056       N  0.22295237  0.03451671  0.04881121    -0.79600
N2057       N  0.32746539  0.14421887  0.10635120    -0.36500
N2058       N  0.35852816  0.11968474  0.08582591    -0.57000
N2059       N  0.38887483  0.13746910  0.11254733    -0.36500
N2060       N  0.35760236  0.15992922  0.13482195    -0.57000
C2061       C  0.31583424  0.13100736  0.09548195     0.27100
C2062       C  0.31554739  0.15288009  0.12064335     0.27100
C2063       C  0.40045493  0.12384372  0.10243047     0.27100
C2064       C  0.39982523  0.14444647  0.12866832     0.27100
C2065       C  0.34246282  0.11491271  0.07386348     0.35700
C2066       C  0.37501095  0.11226420  0.07635142     0.35700
C2067       C  0.34187562  0.17154054  0.14071135     0.35700
C2068       C  0.37413338  0.16765972  0.14428477     0.35700
C2069       C  0.29622762  0.13156572  0.10274667    -0.21800
C2070       C  0.29604352  0.14539669  0.11856033    -0.21800
C2071       C  0.41916164  0.12251789  0.11208419    -0.21800
C2072       C  0.41870205  0.13535142  0.12867292    -0.21800
C2073       C  0.34869318  0.10410257  0.05681078    -0.22800
C2074       C  0.36931021  0.10242629  0.05838105    -0.22800
C2075       C  0.34837424  0.18661127  0.15418494    -0.22800
C2076       C  0.36884718  0.18413654  0.15647809    -0.22800
C2077       C  0.32213582  0.11890584  0.07875509    -0.18200
C2078       C  0.32158242  0.16782683  0.13512491    -0.18200
C2079       C  0.39379382  0.15955881  0.14282647    -0.18200
C2080       C  0.39497874  0.11324795  0.08425704    -0.18200
H2081       H  0.28332217  0.12290652  0.09723935     0.14700
H2082       H  0.28301456  0.14939590  0.12755750     0.14700
H2083       H  0.43201446  0.11345616  0.10765793     0.14700
H2084       H  0.43106571  0.13791605  0.13933730     0.14700
H2085       H  0.33933083  0.09786780  0.04462812     0.13000
H2086       H  0.37892698  0.09458176  0.04766151     0.13000
H2087       H  0.33928931  0.19802616  0.16173626     0.13000
H2088       H  0.37869881  0.19335302  0.16609083     0.13000
H2089       H  0.34236172  0.14782605  0.10350102     0.26300
H2090       H  0.37476719  0.14251016  0.10823211     0.26300
N2091       N  0.13285006  0.13537050  0.91381199    -0.36500
N2092       N  0.11353495  0.16048143  0.88272748    -0.57000
N2093       N  0.13304446  0.13643619  0.85094874    -0.36500
N2094       N  0.15462532  0.11329323  0.88201599    -0.57000
C2095       C  0.12454740  0.15008435  0.92558241     0.27100
C2096       C  0.14720538  0.12601222  0.92523588     0.27100
C2097       C  0.12634933  0.15255933  0.83993920     0.27100
C2098       C  0.14675923  0.12657944  0.83942328     0.27100
C2099       C  0.10254786  0.16611004  0.89908531     0.35700
C2100       C  0.10364496  0.16753966  0.86601980     0.35700
C2101       C  0.16085443  0.10260479  0.89856306     0.35700
C2102       C  0.15954993  0.10204578  0.86545353     0.35700
C2103       C  0.13347799  0.14981514  0.94486929    -0.21800
C2104       C  0.14785757  0.13472283  0.94461031    -0.21800
C2105       C  0.13601622  0.15300289  0.82123180    -0.21800
C2106       C  0.14859846  0.13640673  0.82074504    -0.21800
C2107       C  0.08569284  0.17698305  0.89276941    -0.22800
C2108       C  0.08632014  0.17778182  0.87180665    -0.22800
C2109       C  0.17017199  0.08468587  0.89250774    -0.22800
C2110       C  0.16931783  0.08430486  0.87152337    -0.22800
C2111       C  0.10844039  0.16299319  0.91966207    -0.18200
C2112       C  0.15907339  0.10920055  0.91904228    -0.18200
C2113       C  0.15658164  0.10825537  0.84492905    -0.18200
C2114       C  0.11079384  0.16603532  0.84575596    -0.18200
H2115       H  0.12999878  0.15941079  0.95785135     0.14700
H2116       H  0.15757273  0.13053587  0.95733671     0.14700
H2117       H  0.13399684  0.16393367  0.80898150     0.14700
H2118       H  0.15793169  0.13222895  0.80796260     0.14700
H2119       H  0.07425008  0.18383280  0.90224709     0.13000
H2120       H  0.07533581  0.18520317  0.86198445     0.13000
H2121       H  0.17694702  0.07312896  0.90219276     0.13000
H2122       H  0.17556531  0.07249923  0.86188286     0.13000
H2123       H  0.12820646  0.13121790  0.89918990     0.26300
H2124       H  0.12755417  0.13156184  0.86492615     0.26300
N2125       N  0.12675931  0.92542669  0.11893989    -0.36500
N2126       N  0.10258880  0.89554483  0.14060942    -0.57000
N2127       N  0.12244823  0.86263572  0.11864799    -0.36500
N2128       N  0.14417785  0.89304200  0.09452130    -0.57000
C2129       C  0.11399990  0.93774318  0.12912313     0.27100
C2130       C  0.13448057  0.93646704  0.10342341     0.27100
C2131       C  0.10631589  0.85257440  0.12628154     0.27100
C2132       C  0.12979974  0.85109819  0.10329129     0.27100
C2133       C  0.09967486  0.91198607  0.15274519     0.35700
C2134       C  0.09582600  0.87917452  0.15107534     0.35700
C2135       C  0.15467836  0.90904320  0.08706725     0.35700
C2136       C  0.15377153  0.87605160  0.08821278     0.35700
C2137       C  0.11376806  0.95694219  0.12018333    -0.21800
C2138       C  0.12664037  0.95611565  0.10388086    -0.21800
C2139       C  0.10354097  0.83436700  0.11566139    -0.21800
C2140       C  0.11856634  0.83329060  0.10138806    -0.21800
C2141       C  0.09095322  0.90609457  0.17097673    -0.22800
C2142       C  0.08853761  0.88526569  0.16993694    -0.22800
C2143       C  0.17086323  0.90222213  0.07571472    -0.22800
C2144       C  0.17034627  0.88126289  0.07651105    -0.22800
C2145       C  0.10335081  0.93236942  0.14687020    -0.18200
C2146       C  0.14925044  0.92969169  0.08957822    -0.18200
C2147       C  0.14666978  0.85597004  0.09126124    -0.18200
C2148       C  0.09455759  0.85912174  0.14302576    -0.18200
H2149       H  0.10525123  0.97018584  0.12493719     0.14700
H2150       H  0.12999191  0.96864398  0.09365822     0.14700
H2151       H  0.09189513  0.82298571  0.11783351     0.14700
H2152       H  0.12072119  0.82096345  0.09057048     0.14700
H2153       H  0.08656750  0.91581778  0.18357648     0.13000
H2154       H  0.08201072  0.87571071  0.18164993     0.13000
H2155       H  0.18180671  0.91138122  0.06762239     0.13000
H2156       H  0.18071740  0.87103561  0.06897453     0.13000
H2157       H  0.13081553  0.91072281  0.12315757     0.26300
H2158       H  0.12874234  0.87615579  0.12413611     0.26300
N2159       N  0.92095699  0.12691145  0.12586597    -0.36500
N2160       N  0.88887625  0.10268349  0.14471987    -0.57000
N2161       N  0.85864954  0.12730824  0.12409020    -0.36500
N2162       N  0.89105047  0.14948686  0.10315752    -0.57000
C2163       C  0.93172462  0.11109849  0.13341130     0.27100
C2164       C  0.93280360  0.13676192  0.11231745     0.27100
C2165       C  0.84716098  0.11186866  0.13133699     0.27100
C2166       C  0.84841808  0.13569473  0.10820574     0.27100
C2167       C  0.90504636  0.09526495  0.15500171     0.35700
C2168       C  0.87237020  0.09611057  0.15477403     0.35700
C2169       C  0.90736815  0.16100963  0.09873552     0.35700
C2170       C  0.87483226  0.16013200  0.09669581     0.35700
C2171       C  0.95078231  0.11109242  0.12477638    -0.21800
C2172       C  0.95146592  0.12732859  0.11148952    -0.21800
C2173       C  0.82926598  0.11069191  0.12019941    -0.21800
C2174       C  0.83009957  0.12567740  0.10552654    -0.21800
C2175       C  0.89880720  0.08376466  0.17157439    -0.22800
C2176       C  0.87808962  0.08440708  0.17150872    -0.22800
C2177       C  0.90152544  0.17903151  0.08933398    -0.22800
C2178       C  0.88085888  0.17848107  0.08803891    -0.22800
C2179       C  0.92526105  0.09740390  0.14872035    -0.18200
C2180       C  0.92746763  0.15454358  0.10137773    -0.18200
C2181       C  0.85489805  0.15252952  0.09646432    -0.18200
C2182       C  0.85227064  0.09897720  0.14789873    -0.18200
H2183       H  0.96303981  0.10061160  0.12785669     0.14700
H2184       H  0.96427522  0.13170673  0.10232868     0.14700
H2185       H  0.81699647  0.09995376  0.12222653     0.14700
H2186       H  0.81853881  0.12877649  0.09413707     0.14700
H2187       H  0.90819143  0.07555350  0.18241843     0.13000
H2188       H  0.86835639  0.07676585  0.18228482     0.13000
H2189       H  0.91115125  0.19107817  0.08360625     0.13000
H2190       H  0.87135856  0.19006743  0.08115045     0.13000
H2191       H  0.90673717  0.13136757  0.13057049     0.26300
H2192       H  0.87232459  0.13237523  0.13016542     0.26300
C2193       C  0.25000536  0.05988846  0.04597173    -0.05100
C2194       C  0.26217157  0.04939092  0.06021185    -0.05000
C2195       C  0.27949615  0.05848225  0.06838864    -0.23200
C2196       C  0.28485500  0.07833323  0.06265746     0.19000
C2197       C  0.27295805  0.08898412  0.04809523     0.16200
C2198       C  0.25571938  0.07958989  0.03965643    -0.18200
C2199       C  0.27816908  0.10907511  0.04276164    -0.20100
C2200       C  0.29464731  0.11869178  0.05225803    -0.12600
C2201       C  0.30624381  0.10819061  0.06687563     0.04100
C2202       C  0.30154241  0.08794427  0.07178196    -0.24800
H2203       H  0.25820738  0.03414327  0.06521738     0.09100
H2204       H  0.28846850  0.05014190  0.07951819     0.12700
H2205       H  0.24641689  0.08788270  0.02876302     0.12700
H2206       H  0.26920735  0.11749953  0.03169268     0.12400
H2207       H  0.29812162  0.13443988  0.04857926     0.13000
H2208       H  0.31042934  0.08003681  0.08331809     0.14900
C2209       C  0.19688830  0.00852234  0.05396626    -0.05100
C2210       C  0.20238161  0.00544358  0.07456251    -0.05000
C2211       C  0.19453747  0.98899942  0.08546436    -0.23200
C2212       C  0.18125691  0.97524063  0.07586916     0.19000
C2213       C  0.17581809  0.97803761  0.05506833     0.16200
C2214       C  0.18354770  0.99476341  0.04430113    -0.18200
C2215       C  0.16263468  0.96412350  0.04545259    -0.20100
C2216       C  0.15454808  0.94785174  0.05650178    -0.12600
C2217       C  0.15956011  0.94536061  0.07723505     0.04100
C2218       C  0.17308504  0.95890035  0.08680991    -0.24800
H2219       H  0.21258878  0.01590991  0.08234017     0.09100
H2220       H  0.19882552  0.98706634  0.10139174     0.12700
H2221       H  0.17936800  0.99692893  0.02836841     0.12700
H2222       H  0.15836124  0.96600374  0.02951827     0.12400
H2223       H  0.14396985  0.93750913  0.04907824     0.13000
H2224       H  0.17680041  0.95692631  0.10288837     0.14900
C2225       C  0.19234962  0.05825442  0.99779345    -0.05100
C2226       C  0.17147682  0.05499305  0.99542672    -0.05000
C2227       C  0.16084648  0.06397598  0.97924334    -0.23200
C2228       C  0.17095540  0.07619199  0.96503885     0.19000
C2229       C  0.19204861  0.07912360  0.96696754     0.16200
C2230       C  0.20257372  0.07022210  0.98337015    -0.18200
C2231       C  0.20221649  0.09114521  0.95260639    -0.20100
C2232       C  0.19150674  0.10055133  0.93672606    -0.12600
C2233       C  0.17053494  0.09809000  0.93505549     0.04100
C2234       C  0.16031524  0.08575584  0.94909787    -0.24800
H2235       H  0.16325827  0.04585691  0.00636296     0.09100
H2236       H  0.14470426  0.06152498  0.97794897     0.12700
H2237       H  0.21870640  0.07266408  0.98492595     0.12700
H2238       H  0.21838141  0.09346682  0.95380390     0.12400
H2239       H  0.19948394  0.11007132  0.92592847     0.13000
H2240       H  0.14409296  0.08388951  0.94770727     0.14900
C2241       C  0.17709226  0.14895996  0.30246446    -0.05100
C2242       C  0.19213674  0.13904064  0.29130531    -0.05000
C2243       C  0.20155014  0.14903324  0.27510050    -0.23200
C2244       C  0.19579459  0.16895825  0.26972364     0.19000
C2245       C  0.18074199  0.17905019  0.28106999     0.16200
C2246       C  0.17160245  0.16902790  0.29747202    -0.18200
C2247       C  0.17471837  0.19879227  0.27550389    -0.20100
C2248       C  0.18312977  0.20828753  0.25848738    -0.12600
C2249       C  0.19789172  0.19830489  0.24689205     0.04100
C2250       C  0.20442629  0.17874037  0.25286672    -0.24800
H2251       H  0.19638860  0.12350501  0.29503092     0.09100
H2252       H  0.21303014  0.14106306  0.26654330     0.12700
H2253       H  0.15983774  0.17655763  0.30605571     0.12700
H2254       H  0.16322863  0.20673478  0.28407483     0.12400
H2255       H  0.17793511  0.22340797  0.25430957     0.13000
H2256       H  0.21574554  0.17081877  0.24403536     0.14900
C2257       C  0.24749932  0.19918350  0.19169697    -0.05100
C2258       C  0.25703485  0.18225311  0.20087579    -0.05000
C2259       C  0.27391639  0.17332229  0.19204122    -0.23200
C2260       C  0.28162597  0.18105450  0.17377866     0.19000
C2261       C  0.27227269  0.19807343  0.16434135     0.16200
C2262       C  0.25530050  0.20706295  0.17337662    -0.18200
C2263       C  0.27991345  0.20559917  0.14587415    -0.20100
C2264       C  0.29636153  0.19607968  0.13666436    -0.12600
C2265       C  0.30551722  0.17910489  0.14590813     0.04100
C2266       C  0.29828969  0.17178147  0.16458317    -0.24800
H2267       H  0.25142762  0.17576274  0.21494948     0.09100
H2268       H  0.28085123  0.16025674  0.19943320     0.12700
H2269       H  0.24813299  0.22004875  0.16606666     0.12700
H2270       H  0.27295888  0.21859432  0.13838744     0.12400
H2271       H  0.30176912  0.20171015  0.12214100     0.13000
H2272       H  0.30528319  0.15850532  0.17155361     0.14900
C2273       C  0.10471821  0.07127513  0.30499351    -0.05100
C2274       C  0.11528407  0.05874789  0.29135982    -0.05000
C2275       C  0.10520314  0.04934588  0.27495035    -0.23200
C2276       C  0.08444850  0.05248290  0.27191108     0.19000
C2277       C  0.07363080  0.06451453  0.28602779     0.16200
C2278       C  0.08380775  0.07368407  0.30255007    -0.18200
C2279       C  0.05297752  0.06791659  0.28290648    -0.20100
C2280       C  0.04326552  0.06022591  0.26547347    -0.12600
C2281       C  0.05396339  0.04874531  0.25101222     0.04100
C2282       C  0.07448317  0.04446908  0.25460973    -0.24800
H2283       H  0.13144223  0.05683967  0.29306915     0.09100
H2284       H  0.11373197  0.04016143  0.26430110     0.12700
H2285       H  0.07568668  0.08350723  0.31298639     0.12700
H2286       H  0.04445654  0.07699620  0.29365483     0.12400
H2287       H  0.02738826  0.06348236  0.26318780     0.13000
H2288       H  0.08290088  0.03565343  0.24355114     0.14900
C2289       C  0.00011606  0.05742754  0.19949480    -0.05100
C2290       C  0.99424566  0.07581933  0.20886140    -0.05000
C2291       C  0.97799510  0.08701415  0.20111649    -0.23200
C2292       C  0.96724892  0.07997615  0.18392830     0.19000
C2293       C  0.97278979  0.06134383  0.17455005     0.16200
C2294       C  0.98919226  0.05023744  0.18235324    -0.18200
C2295       C  0.96196987  0.05426154  0.15736945    -0.20100
C2296       C  0.94600502  0.06571436  0.14937402    -0.12600
C2297       C  0.94074703  0.08435973  0.15842360     0.04100
C2298       C  0.95125576  0.09140126  0.17575851    -0.24800
H2299       H  0.00239828  0.08176446  0.22204144     0.09100
H2300       H  0.97393283  0.10125145  0.20847918     0.12700
H2301       H  0.99347856  0.03606349  0.17499020     0.12700
H2302       H  0.96601214  0.04003147  0.14998614     0.12400
H2303       H  0.93803130  0.06032397  0.13584040     0.13000
H2304       H  0.94718292  0.10592306  0.18256751     0.14900
C2305       C  0.05088468  0.00353593  0.19083226    -0.05100
C2306       C  0.03833042  0.99205653  0.17766629    -0.05000
C2307       C  0.04603106  0.97552392  0.16673771    -0.23200
C2308       C  0.06647535  0.97039119  0.16858716     0.19000
C2309       C  0.07933762  0.98214768  0.18144611     0.16200
C2310       C  0.07142537  0.99852709  0.19259341    -0.18200
C2311       C  0.09990778  0.97733638  0.18291030    -0.20100
C2312       C  0.10764677  0.96095680  0.17179604    -0.12600
C2313       C  0.09488660  0.94908158  0.15930476     0.04100
C2314       C  0.07432470  0.95380122  0.15770487    -0.24800
H2315       H  0.02244529  0.99563884  0.17609574     0.09100
H2316       H  0.03600228  0.96674895  0.15686849     0.12700
H2317       H  0.08128751  0.00746935  0.20250252     0.12700
H2318       H  0.11000000  0.98628960  0.19254669     0.12400
H2319       H  0.12360381  0.95753171  0.17285823     0.13000
H2320       H  0.06460728  0.94474207  0.14775299     0.14900
C2321       C  0.19121823  0.24905273  0.19201149    -0.05100
C2322       C  0.17189932  0.25396454  0.19927508    -0.05000
C2323       C  0.16048136  0.26935120  0.19009583    -0.23200
C2324       C  0.16816551  0.28026897  0.17352633     0.19000
C2325       C  0.18769210  0.27578705  0.16622876     0.16200
C2326       C  0.19906808  0.26014999  0.17546254    -0.18200
C2327       C  0.19541855  0.28697578  0.14975547    -0.20100
C2328       C  0.18382197  0.30228760  0.14052234    -0.12600
C2329       C  0.16436073  0.30651471  0.14757102     0.04100
C2330       C  0.15659568  0.29554412  0.16409012    -0.24800
H2331       H  0.16539796  0.24571084  0.21195808     0.09100
H2332       H  0.14558580  0.27264163  0.19591073     0.12700
H2333       H  0.21396561  0.25664918  0.16976650     0.12700
H2334       H  0.21036484  0.28384974  0.14399408     0.12400
H2335       H  0.18993614  0.31078429  0.12779145     0.13000
H2336       H  0.14157312  0.29895686  0.16952673     0.14900
C2337       C  0.04670292  0.24987984  0.04518037    -0.05100
C2338       C  0.03885314  0.25651002  0.06399483    -0.05000
C2339       C  0.04776602  0.27273454  0.07470644    -0.23200
C2340       C  0.06469517  0.28271869  0.06682185     0.19000
C2341       C  0.07245076  0.27658007  0.04769357     0.16200
C2342       C  0.06340333  0.26025001  0.03699873    -0.18200
C2343       C  0.08935922  0.28666091  0.03975869    -0.20100
C2344       C  0.09870989  0.30240350  0.05084214    -0.12600
C2345       C  0.09131230  0.30824189  0.06998720     0.04100
C2346       C  0.07420577  0.29851507  0.07787283    -0.24800
H2347       H  0.02597237  0.24893219  0.07069151     0.09100
H2348       H  0.04156632  0.27729410  0.08929043     0.12700
H2349       H  0.06959097  0.25544499  0.02248568     0.12700
H2350       H  0.09549042  0.28220513  0.02511790     0.12400
H2351       H  0.11193649  0.30983825  0.04468076     0.13000
H2352       H  0.06854559  0.30308621  0.09269551     0.14900
C2353       C  0.09754859  0.17425880  0.93583117    -0.05100
C2354       C  0.10586727  0.19209410  0.94442525    -0.05000
C2355       C  0.09581298  0.20245509  0.96000790    -0.23200
C2356       C  0.07720509  0.19518228  0.96707446     0.19000
C2357       C  0.06860076  0.17742627  0.95813735     0.16200
C2358       C  0.07886263  0.16704155  0.94262724    -0.18200
C2359       C  0.04997780  0.17021163  0.96501015    -0.20100
C2360       C  0.04015512  0.18015001  0.98094295    -0.12600
C2361       C  0.04873546  0.19752830  0.99038599     0.04100
C2362       C  0.06720413  0.20515143  0.98310149    -0.24800
H2363       H  0.12026156  0.19782248  0.93918670     0.09100
H2364       H  0.10263338  0.21605549  0.96660597     0.12700
H2365       H  0.07243255  0.15330722  0.93586836     0.12700
H2366       H  0.04311291  0.15671341  0.95823892     0.12400
H2367       H  0.02590854  0.17396349  0.98606280     0.13000
H2368       H  0.07402640  0.21853691  0.99014695     0.14900
C2369       C  0.99675372  0.19404661  0.04334966    -0.05100
C2370       C  0.98697437  0.17792495  0.03292629    -0.05000
C2371       C  0.97122237  0.16717875  0.04207501    -0.23200
C2372       C  0.96505141  0.17224445  0.06188249     0.19000
C2373       C  0.97479179  0.18838744  0.07254019     0.16200
C2374       C  0.99045215  0.19923783  0.06317511    -0.18200
C2375       C  0.96882375  0.19329506  0.09248149    -0.20100
C2376       C  0.95338414  0.18226354  0.10180903    -0.12600
C2377       C  0.94364757  0.16630972  0.09128709     0.04100
C2378       C  0.94942573  0.16136685  0.07130077    -0.24800
H2379       H  0.99149599  0.17357639  0.01765542     0.09100
H2380       H  0.96395824  0.15482488  0.03370734     0.12700
H2381       H  0.99791884  0.21150860  0.07149419     0.12700
H2382       H  0.97616291  0.20557556  0.10088749     0.12400
H2383       H  0.94899988  0.18613222  0.11725326     0.13000
H2384       H  0.94187593  0.14895419  0.06326377     0.14900
C2385       C  0.06060723  0.20848979  0.77127626    -0.05100
C2386       C  0.06303283  0.18772749  0.76665839    -0.05000
C2387       C  0.07453726  0.17528010  0.77970183    -0.23200
C2388       C  0.08364948  0.18356000  0.79740520     0.19000
C2389       C  0.08250332  0.20480075  0.80111437     0.16200
C2390       C  0.07112070  0.21708905  0.78796169    -0.18200
C2391       C  0.09178540  0.21327575  0.81853732    -0.20100
C2392       C  0.10146228  0.20068166  0.83269256    -0.12600
C2393       C  0.10168942  0.17942329  0.82982228     0.04100
C2394       C  0.09309579  0.17095048  0.81192181    -0.24800
H2395       H  0.05490171  0.18089640  0.75389814     0.09100
H2396       H  0.07549535  0.15906081  0.77649911     0.12700
H2397       H  0.06931115  0.23319868  0.79145968     0.12700
H2398       H  0.09115523  0.22957245  0.82145056     0.12400
H2399       H  0.10836316  0.20745091  0.84620581     0.13000
H2400       H  0.09336660  0.15454003  0.80960486     0.14900
C2401       C  0.92564626  0.35882667  0.66404468    -0.05100
C2402       C  0.94616630  0.36362169  0.66649897    -0.05000
C2403       C  0.95785026  0.35351569  0.68123826    -0.23200
C2404       C  0.94917863  0.33826383  0.69345095     0.19000
C2405       C  0.92834889  0.33386426  0.69144341     0.16200
C2406       C  0.91665395  0.34440752  0.67693271    -0.18200
C2407       C  0.91979197  0.31825794  0.70321949    -0.20100
C2408       C  0.93194712  0.30631243  0.71603286    -0.12600
C2409       C  0.95277472  0.31008503  0.71765747     0.04100
C2410       C  0.96116869  0.32659282  0.70681646    -0.24800
H2411       H  0.95320650  0.37475070  0.65659254     0.09100
H2412       H  0.97379012  0.35707919  0.68256199     0.12700
H2413       H  0.90080001  0.34069709  0.67488978     0.12700
H2414       H  0.90384670  0.31473402  0.70188053     0.12400
H2415       H  0.92515033  0.29372178  0.72422380     0.13000
H2416       H  0.97726620  0.32952851  0.70772061     0.14900
C2417       C  0.94747242  0.30435393  0.49718741    -0.05100
C2418       C  0.92765750  0.29800940  0.50146309    -0.05000
C2419       C  0.91710281  0.30653889  0.51780135    -0.23200
C2420       C  0.92618313  0.32151264  0.53024636     0.19000
C2421       C  0.94635710  0.32744659  0.52660513     0.16200
C2422       C  0.95684402  0.31883890  0.51015569    -0.18200
C2423       C  0.95552713  0.34231984  0.53913899    -0.20100
C2424       C  0.94459742  0.35172529  0.55469443    -0.12600
C2425       C  0.92437835  0.34638556  0.55796482     0.04100
C2426       C  0.91529990  0.33104925  0.54591368    -0.24800
H2427       H  0.92006261  0.28684756  0.49182446     0.09100
H2428       H  0.90169722  0.30171234  0.52044950     0.12700
H2429       H  0.97217866  0.32375110  0.50723677     0.12700
H2430       H  0.97100028  0.34699211  0.53662428     0.12400
H2431       H  0.95171912  0.36358364  0.56385980     0.13000
H2432       H  0.89965643  0.32697326  0.54844855     0.14900
C2433       C  0.91240830  0.19445999  0.41282243    -0.05100
C2434       C  0.90758990  0.19667616  0.43355813    -0.05000
C2435       C  0.91607486  0.21256691  0.44518648    -0.23200
C2436       C  0.92953966  0.22644796  0.43622426     0.19000
C2437       C  0.93486657  0.22393171  0.41548055     0.16200
C2438       C  0.92626087  0.20796272  0.40391841    -0.18200
C2439       C  0.94847609  0.23761920  0.40656348    -0.20100
C2440       C  0.95660862  0.25380021  0.41799108    -0.12600
C2441       C  0.95116734  0.25675488  0.43852593     0.04100
C2442       C  0.93761070  0.24290051  0.44756269    -0.24800
H2443       H  0.89689007  0.18637128  0.44057826     0.09100
H2444       H  0.91189355  0.21417346  0.46108870     0.12700
H2445       H  0.92997018  0.20622172  0.38789139     0.12700
H2446       H  0.95274935  0.23588498  0.39069874     0.12400
H2447       H  0.96696427  0.26420746  0.41061528     0.13000
H2448       H  0.93338531  0.24485401  0.46342164     0.14900
C2449       C  0.00250437  0.31125744  0.44747878    -0.05100
C2450       C  0.01116316  0.32698585  0.45944917    -0.05000
C2451       C  0.02818450  0.33764034  0.45278235    -0.23200
C2452       C  0.03691303  0.33289665  0.43393580     0.19000
C2453       C  0.02847558  0.31706691  0.42176716     0.16200
C2454       C  0.01141212  0.30632053  0.42862826    -0.18200
C2455       C  0.03706828  0.31248638  0.40277343    -0.20100
C2456       C  0.05355739  0.32375247  0.39572430    -0.12600
C2457       C  0.06187268  0.33960469  0.40761896     0.04100
C2458       C  0.05365607  0.34398873  0.42684258    -0.24800
H2459       H  0.00475464  0.33115713  0.47403786     0.09100
H2460       H  0.03441475  0.34972909  0.46230892     0.12700
H2461       H  0.00496097  0.29430470  0.41915074     0.12700
H2462       H  0.03080708  0.30044858  0.39320558     0.12400
H2463       H  0.05963649  0.32038433  0.38077938     0.13000
H2464       H  0.05992108  0.35641836  0.43590869     0.14900
C2465       C  0.90148597  0.56252460  0.32993881    -0.05100
C2466       C  0.89288064  0.55399431  0.31214681    -0.05000
C2467       C  0.90320749  0.53905605  0.30110083    -0.23200
C2468       C  0.92242492  0.53262441  0.30756553     0.19000
C2469       C  0.93131736  0.54147192  0.32526354     0.16200
C2470       C  0.92071141  0.55619710  0.33644529    -0.18200
C2471       C  0.95063609  0.53538318  0.33154523    -0.20100
C2472       C  0.96079396  0.52013234  0.32087141    -0.12600
C2473       C  0.95182397  0.51055636  0.30372112     0.04100
C2474       C  0.93274666  0.51727357  0.29687131    -0.24800
H2475       H  0.87815240  0.55894819  0.30684051     0.09100
H2476       H  0.89618096  0.53255052  0.28752094     0.12700
H2477       H  0.92744372  0.56297074  0.35006207     0.12700
H2478       H  0.95776998  0.54217692  0.34492874     0.12400
H2479       H  0.97552310  0.51548506  0.32644273     0.13000
H2480       H  0.92566514  0.51020895  0.28359580     0.14900
C2481       C  0.92866168  0.40231322  0.19975567    -0.05100
C2482       C  0.94713234  0.39525443  0.20761667    -0.05000
C2483       C  0.95710591  0.40599987  0.22324808    -0.23200
C2484       C  0.94883914  0.42410638  0.23103729     0.19000
C2485       C  0.93018905  0.43124462  0.22318770     0.16200
C2486       C  0.92012582  0.42019169  0.20772556    -0.18200
C2487       C  0.92203716  0.44943461  0.23077025    -0.20100
C2488       C  0.93222330  0.46048125  0.24602087    -0.12600
C2489       C  0.95074460  0.45352775  0.25408683     0.04100
C2490       C  0.95895594  0.43524584  0.24643758    -0.24800
H2491       H  0.95386084  0.38149769  0.20151021     0.09100
H2492       H  0.97137782  0.40029067  0.22907216     0.12700
H2493       H  0.90588547  0.42565229  0.20154036     0.12700
H2494       H  0.90779065  0.45515077  0.22487928     0.12400
H2495       H  0.92547800  0.47445992  0.25156459     0.13000
H2496       H  0.97320433  0.42963532  0.25243549     0.14900
C2497       C  0.06242438  0.41506520  0.33328971    -0.05100
C2498       C  0.05403114  0.40440878  0.31659783    -0.05000
C2499       C  0.03823436  0.41295313  0.30513666    -0.23200
C2500       C  0.03050307  0.43219560  0.31038394     0.19000
C2501       C  0.03909802  0.44303839  0.32710063     0.16200
C2502       C  0.05507544  0.43445218  0.33836856    -0.18200
C2503       C  0.03133120  0.46212667  0.33252885    -0.20100
C2504       C  0.01496770  0.47030547  0.32177094    -0.12600
C2505       C  0.00600413  0.45961012  0.30529218     0.04100
C2506       C  0.01408504  0.44059189  0.29951337    -0.24800
H2507       H  0.05958774  0.38938069  0.31262678     0.09100
H2508       H  0.03186623  0.40439395  0.29239750     0.12700
H2509       H  0.06152127  0.44256892  0.35137550     0.12700
H2510       H  0.03773661  0.47062865  0.34529165     0.12400
H2511       H  0.00917183  0.48497263  0.32661249     0.13000
H2512       H  0.00737082  0.43211185  0.28689238     0.14900
C2513       C  0.84743724  0.41894867  0.55156119    -0.05100
C2514       C  0.85264602  0.43959568  0.54926411    -0.05000
C2515       C  0.84384299  0.45128023  0.53374707    -0.23200
C2516       C  0.82954204  0.44249601  0.52041785     0.19000
C2517       C  0.82420832  0.42166142  0.52265263     0.16200
C2518       C  0.83331767  0.40994250  0.53816667    -0.18200
C2519       C  0.80971289  0.41301088  0.50946870    -0.20100
C2520       C  0.80039238  0.42493357  0.49439623    -0.12600
C2521       C  0.80555116  0.44568154  0.49206157     0.04100
C2522       C  0.82032986  0.45428709  0.50506364    -0.24800
H2523       H  0.86358882  0.44662548  0.55952730     0.09100
H2524       H  0.84809976  0.46720826  0.53226989     0.12700
H2525       H  0.82934580  0.39396800  0.54000611     0.12700
H2526       H  0.80545439  0.39707952  0.51092204     0.12400
H2527       H  0.78916874  0.41784460  0.48450252     0.13000
H2528       H  0.82443494  0.47025514  0.50349876     0.14900
C2529       C  0.80380188  0.50728639  0.44850414    -0.05100
C2530       C  0.82250472  0.51391103  0.45654354    -0.05000
C2531       C  0.83257514  0.53061308  0.44797872    -0.23200
C2532       C  0.82416486  0.54096655  0.43117598     0.19000
C2533       C  0.80495034  0.53503762  0.42359881     0.16200
C2534       C  0.79486520  0.51840750  0.43239042    -0.18200
C2535       C  0.79642597  0.54536753  0.40684203    -0.20100
C2536       C  0.80712902  0.56096219  0.39720947    -0.12600
C2537       C  0.82646368  0.56646596  0.40418924     0.04100
C2538       C  0.83483611  0.55670807  0.42139930    -0.24800
H2539       H  0.82968840  0.50581325  0.46907293     0.09100
H2540       H  0.84719207  0.53506168  0.45413162     0.12700
H2541       H  0.78037281  0.51369481  0.42611583     0.12700
H2542       H  0.78168590  0.54106989  0.40089599     0.12400
H2543       H  0.80055504  0.56845565  0.38397299     0.13000
H2544       H  0.84977400  0.56105777  0.42679136     0.14900
C2545       C  0.69476473  0.40951608  0.41277180    -0.05100
C2546       C  0.70253010  0.39938195  0.42998919    -0.05000
C2547       C  0.71816349  0.40814294  0.44154640    -0.23200
C2548       C  0.72634404  0.42708325  0.43588218     0.19000
C2549       C  0.71840946  0.43747241  0.41864287     0.16200
C2550       C  0.70256155  0.42865083  0.40723613    -0.18200
C2551       C  0.72670721  0.45631148  0.41291962    -0.20100
C2552       C  0.74296161  0.46463253  0.42393621    -0.12600
C2553       C  0.75121701  0.45428660  0.44091247     0.04100
C2554       C  0.74258238  0.43558632  0.44693169    -0.24800
H2555       H  0.69659555  0.38458268  0.43431440     0.09100
H2556       H  0.72405566  0.39997769  0.45471320     0.12700
H2557       H  0.69655129  0.43637217  0.39383863     0.12700
H2558       H  0.72080973  0.46448075  0.39975617     0.12400
H2559       H  0.74925995  0.47904558  0.41892463     0.13000
H2560       H  0.74868436  0.42741992  0.46000870     0.14900
C2561       C  0.80054436  0.25187969  0.29865418    -0.05100
C2562       C  0.79025229  0.24335487  0.31532877    -0.05000
C2563       C  0.79897323  0.22772520  0.32691105    -0.23200
C2564       C  0.81819014  0.22040556  0.32210639     0.19000
C2565       C  0.82864798  0.22875909  0.30531274     0.16200
C2566       C  0.81972105  0.24431791  0.29364855    -0.18200
C2567       C  0.84796425  0.22154629  0.30058875    -0.20100
C2568       C  0.85687047  0.20623882  0.31245782    -0.12600
C2569       C  0.84653508  0.19791840  0.32908157     0.04100
C2570       C  0.82718990  0.20495063  0.33385194    -0.24800
H2571       H  0.77546405  0.24883719  0.31953885     0.09100
H2572       H  0.79075715  0.22148379  0.33972423     0.12700
H2573       H  0.82790007  0.25074352  0.28089630     0.12700
H2574       H  0.85618631  0.22778110  0.28777919     0.12400
H2575       H  0.87178468  0.20078479  0.30866089     0.13000
H2576       H  0.81927175  0.19840468  0.34672353     0.14900
C2577       C  0.69513954  0.33553550  0.33693575    -0.05100
C2578       C  0.70370397  0.31932956  0.34794283    -0.05000
C2579       C  0.71894946  0.30757295  0.33931726    -0.23200
C2580       C  0.72591378  0.31204881  0.31963861     0.19000
C2581       C  0.71728035  0.32839307  0.30846855     0.16200
C2582       C  0.70181516  0.33998332  0.31716635    -0.18200
C2583       C  0.72446002  0.33301569  0.28893392    -0.20100
C2584       C  0.74029658  0.32178155  0.28066135    -0.12600
C2585       C  0.74914000  0.30562570  0.29171728     0.04100
C2586       C  0.74162311  0.30068785  0.31113034    -0.24800
H2587       H  0.69857306  0.31585330  0.36323005     0.09100
H2588       H  0.72542610  0.29513585  0.34809552     0.12700
H2589       H  0.69514893  0.35260372  0.30878090     0.12700
H2590       H  0.71802298  0.34548874  0.28017349     0.12400
H2591       H  0.74575211  0.32591506  0.26566416     0.13000
H2592       H  0.74831680  0.28835328  0.31990095     0.14900
C2593       C  0.80453976  0.30192016  0.24258623    -0.05100
C2594       C  0.79641339  0.31875300  0.23201425    -0.05000
C2595       C  0.80735819  0.32846988  0.21673895    -0.23200
C2596       C  0.82662449  0.32152575  0.21169740     0.19000
C2597       C  0.83474449  0.30420090  0.22167717     0.16200
C2598       C  0.82364860  0.29449685  0.23705635    -0.18200
C2599       C  0.85395468  0.29712024  0.21630568    -0.20100
C2600       C  0.86508619  0.30730296  0.20136703    -0.12600
C2601       C  0.85727873  0.32485205  0.19189109     0.04100
C2602       C  0.83801192  0.33182318  0.19703280    -0.24800
H2603       H  0.78168918  0.32471594  0.23578652     0.09100
H2604       H  0.80086426  0.34160918  0.20907384     0.12700
H2605       H  0.83010958  0.28149234  0.24498644     0.12700
H2606       H  0.86039757  0.28382313  0.22373067     0.12400
H2607       H  0.87992423  0.30174695  0.19742217     0.13000
H2608       H  0.83199224  0.34534945  0.18962174     0.14900
C2609       C  0.07880060  0.34656875  0.64777583    -0.05100
C2610       C  0.05828887  0.35097962  0.65054790    -0.05000
C2611       C  0.04594994  0.33758751  0.66131089    -0.23200
C2612       C  0.05385366  0.31938648  0.66924529     0.19000
C2613       C  0.07414337  0.31409539  0.66551355     0.16200
C2614       C  0.08656084  0.32780530  0.65483089    -0.18200
C2615       C  0.08175327  0.29556406  0.67322625    -0.20100
C2616       C  0.06968680  0.28300676  0.68549051    -0.12600
C2617       C  0.04997999  0.28897018  0.69029339     0.04100
C2618       C  0.04198460  0.30683507  0.68157814    -0.24800
H2619       H  0.05199507  0.36517914  0.64490145     0.09100
H2620       H  0.03035056  0.34170685  0.66386232     0.12700
H2621       H  0.10234877  0.32425605  0.65257992     0.12700
H2622       H  0.09720362  0.29113599  0.67034574     0.12400
H2623       H  0.07607394  0.26927362  0.69209993     0.13000
H2624       H  0.02666269  0.31136281  0.68506354     0.14900
C2625       C  0.99710834  0.55906667  0.69357277    -0.05100
C2626       C  0.98689186  0.57461408  0.70408997    -0.05000
C2627       C  0.97033278  0.58441301  0.69508265    -0.23200
C2628       C  0.96385027  0.57899510  0.67531183     0.19000
C2629       C  0.97395449  0.56331564  0.66463224     0.16200
C2630       C  0.99036733  0.55338445  0.67387217    -0.18200
C2631       C  0.96774016  0.55810048  0.64470318    -0.20100
C2632       C  0.95194406  0.56866265  0.63524959    -0.12600
C2633       C  0.94202690  0.58433785  0.64569383     0.04100
C2634       C  0.94777457  0.58929913  0.66581577    -0.24800
H2635       H  0.99169232  0.57922760  0.71930595     0.09100
H2636       H  0.96276385  0.59639977  0.70347345     0.12700
H2637       H  0.99812052  0.54149960  0.66549885     0.12700
H2638       H  0.97534684  0.54614746  0.63630102     0.12400
H2639       H  0.94762817  0.56486330  0.61966369     0.13000
H2640       H  0.94013211  0.60157342  0.67373417     0.14900
C2641       C  0.09233234  0.45128274  0.65927536    -0.05100
C2642       C  0.10506215  0.46382568  0.67116330    -0.05000
C2643       C  0.09706387  0.47977212  0.68274019    -0.23200
C2644       C  0.07623541  0.48351558  0.68236055     0.19000
C2645       C  0.06333728  0.47082261  0.67046764     0.16200
C2646       C  0.07145816  0.45465151  0.65916557    -0.18200
C2647       C  0.04260426  0.47484733  0.66964975    -0.20100
C2648       C  0.03474496  0.49156951  0.68013895    -0.12600
C2649       C  0.04740769  0.50430837  0.69195600     0.04100
C2650       C  0.06814015  0.50001456  0.69325554    -0.24800
H2651       H  0.12121858  0.46137016  0.67125376     0.09100
H2652       H  0.10718139  0.48938329  0.69168286     0.12700
H2653       H  0.06169124  0.44503038  0.64981363     0.12700
H2654       H  0.03252227  0.46528763  0.66060746     0.12400
H2655       H  0.01870564  0.49455547  0.67900653     0.13000
H2656       H  0.07805125  0.50989788  0.70215792     0.14900
C2657       C  0.07975162  0.60174651  0.80222854    -0.05100
C2658       C  0.06805749  0.61432694  0.78944658    -0.05000
C2659       C  0.05743054  0.60604687  0.77283223    -0.23200
C2660       C  0.05846176  0.58505078  0.76868037     0.19000
C2661       C  0.06999011  0.57221163  0.78166601     0.16200
C2662       C  0.08045463  0.58063109  0.79847618    -0.18200
C2663       C  0.07128371  0.55128341  0.77727246    -0.20100
C2664       C  0.06163297  0.54322193  0.75992319    -0.12600
C2665       C  0.05023669  0.55587308  0.74687141     0.04100
C2666       C  0.04850408  0.57676722  0.75151558    -0.24800
H2667       H  0.06749310  0.63065213  0.79216549     0.09100
H2668       H  0.04871837  0.61611025  0.76301970     0.12700
H2669       H  0.08963924  0.57095426  0.80826322     0.12700
H2670       H  0.08000442  0.54121093  0.78706946     0.12400
H2671       H  0.06302631  0.52703815  0.75674569     0.13000
H2672       H  0.03986358  0.58669079  0.74147609     0.14900
C2673       C  0.31079308  0.59744645  0.57339531    -0.05100
C2674       C  0.30245080  0.60884302  0.55726288    -0.05000
C2675       C  0.28624065  0.60105267  0.54578991    -0.23200
C2676       C  0.27800542  0.58185613  0.55050675     0.19000
C2677       C  0.28650313  0.57021694  0.56661758     0.16200
C2678       C  0.30299136  0.57802258  0.57784841    -0.18200
C2679       C  0.27803823  0.55120912  0.57154395    -0.20100
C2680       C  0.26112912  0.54387886  0.56080923    -0.12600
C2681       C  0.25248541  0.55532022  0.54479725     0.04100
C2682       C  0.26118669  0.57428936  0.53964733    -0.24800
H2683       H  0.30827344  0.62392888  0.55384394     0.09100
H2684       H  0.27988731  0.61020095  0.53352238     0.12700
H2685       H  0.30935205  0.56937007  0.59048121     0.12700
H2686       H  0.28435741  0.54210808  0.58386118     0.12400
H2687       H  0.25483600  0.52921479  0.56505120     0.13000
H2688       H  0.25468976  0.58339072  0.52741351     0.14900
C2689       C  0.19490756  0.50729684  0.53806632    -0.05100
C2690       C  0.17958234  0.49823405  0.52602069    -0.05000
C2691       C  0.16791804  0.48215125  0.53365034    -0.23200
C2692       C  0.17118945  0.47487249  0.55357112     0.19000
C2693       C  0.18658996  0.48376380  0.56584884     0.16200
C2694       C  0.19842650  0.49975500  0.55798463    -0.18200
C2695       C  0.18969904  0.47669108  0.58589791    -0.20100
C2696       C  0.17756305  0.46110814  0.59375019    -0.12600
C2697       C  0.16229613  0.45217553  0.58164710     0.04100
C2698       C  0.15919835  0.45902793  0.56151219    -0.24800
H2699       H  0.17655567  0.50359065  0.51062900     0.09100
H2700       H  0.15619836  0.47552838  0.52401322     0.12700
H2701       H  0.21011202  0.50655650  0.56755157     0.12700
H2702       H  0.20138722  0.48333323  0.59556314     0.12400
H2703       H  0.18004224  0.45598163  0.60932512     0.13000
H2704       H  0.14730832  0.45220698  0.55222019     0.14900
C2705       C  0.30941558  0.66914947  0.65199242    -0.05100
C2706       C  0.29876814  0.68342772  0.64013377    -0.05000
C2707       C  0.28329133  0.69494852  0.64871331    -0.23200
C2708       C  0.27809138  0.69223164  0.66928214     0.19000
C2709       C  0.28887626  0.67803004  0.68143256     0.16200
C2710       C  0.30459311  0.66664015  0.67273084    -0.18200
C2711       C  0.28346576  0.67521602  0.70193157    -0.20100
C2712       C  0.26717956  0.68592699  0.71015345    -0.12600
C2713       C  0.25610244  0.69982926  0.69810950     0.04100
C2714       C  0.26197109  0.70314373  0.67772670    -0.24800
H2715       H  0.30240841  0.68553147  0.62415590     0.09100
H2716       H  0.27519925  0.70577431  0.63918314     0.12700
H2717       H  0.31282527  0.65558668  0.68188457     0.12700
H2718       H  0.29159476  0.66445809  0.71150814     0.12400
H2719       H  0.26312385  0.68313827  0.72591134     0.13000
H2720       H  0.25362962  0.71376564  0.66817300     0.14900
C2721       C  0.20281993  0.70445805  0.75008058    -0.05100
C2722       C  0.21422137  0.69240712  0.76373921    -0.05000
C2723       C  0.20522694  0.68318652  0.78063846    -0.23200
C2724       C  0.18455064  0.68558530  0.78414035     0.19000
C2725       C  0.17297421  0.69812028  0.77090879     0.16200
C2726       C  0.18222386  0.70768434  0.75412170    -0.18200
C2727       C  0.15220297  0.70027546  0.77430531    -0.20100
C2728       C  0.14290757  0.68960457  0.79020611    -0.12600
C2729       C  0.15424065  0.67682630  0.80314415     0.04100
C2730       C  0.17514701  0.67515702  0.80026162    -0.24800
H2731       H  0.23012852  0.68981290  0.76119171     0.09100
H2732       H  0.21436109  0.67373927  0.79067796     0.12700
H2733       H  0.17319594  0.71689721  0.74375924     0.12700
H2734       H  0.14306597  0.70983215  0.76437867     0.12400
H2735       H  0.12678495  0.69107051  0.79228119     0.13000
H2736       H  0.18391561  0.66523968  0.81019353     0.14900
C2737       C  0.15621158  0.80461897  0.65837077    -0.05100
C2738       C  0.14646477  0.79759221  0.67598284    -0.05000
C2739       C  0.15526895  0.78239254  0.68815626    -0.23200
C2740       C  0.17386424  0.77382380  0.68274660     0.19000
C2741       C  0.18355616  0.78062071  0.66480946     0.16200
C2742       C  0.17475865  0.79607032  0.65284373    -0.18200
C2743       C  0.20195120  0.77193856  0.65918286    -0.20100
C2744       C  0.21080813  0.75678278  0.67126217    -0.12600
C2745       C  0.20152759  0.74997639  0.68931889     0.04100
C2746       C  0.18294324  0.75862209  0.69493873    -0.24800
H2747       H  0.13215742  0.80411111  0.68041977     0.09100
H2748       H  0.14756797  0.77737857  0.70180483     0.12700
H2749       H  0.18229580  0.80152573  0.63924819     0.12700
H2750       H  0.20952875  0.77689010  0.64543361     0.12400
H2751       H  0.22505525  0.75044768  0.66641193     0.13000
H2752       H  0.17551100  0.75352853  0.70871916     0.14900
C2753       C  0.20524276  0.56242504  0.48696382    -0.05100
C2754       C  0.21725223  0.57869990  0.47988184    -0.05000
C2755       C  0.21118245  0.59044347  0.46313687    -0.23200
C2756       C  0.19290839  0.58627640  0.45305612     0.19000
C2757       C  0.18082147  0.56971515  0.45962569     0.16200
C2758       C  0.18709516  0.55782737  0.47648282    -0.18200
C2759       C  0.16246184  0.56566216  0.44947472    -0.20100
C2760       C  0.15591020  0.57824499  0.43344304    -0.12600
C2761       C  0.16765079  0.59495072  0.42722516     0.04100
C2762       C  0.18631358  0.59870621  0.43682238    -0.24800
H2763       H  0.23136288  0.58261323  0.48744283     0.09100
H2764       H  0.22066567  0.60301179  0.45827384     0.12700
H2765       H  0.17766143  0.54534687  0.48166190     0.12700
H2766       H  0.15300217  0.55302001  0.45418079     0.12400
H2767       H  0.14149242  0.57518910  0.42607776     0.13000
H2768       H  0.19536071  0.61162625  0.43199004     0.14900
C2769       C  0.10405827  0.67936941  0.42909443    -0.05100
C2770       C  0.11407993  0.69485323  0.44014433    -0.05000
C2771       C  0.10463720  0.70455476  0.45656645    -0.23200
C2772       C  0.08496226  0.69898637  0.46209911     0.19000
C2773       C  0.07455937  0.68390653  0.45053149     0.16200
C2774       C  0.08418442  0.67416675  0.43417439    -0.18200
C2775       C  0.05488878  0.67839684  0.45585741    -0.20100
C2776       C  0.04591645  0.68698142  0.47305684    -0.12600
C2777       C  0.05635344  0.70136258  0.48527466     0.04100
C2778       C  0.07573884  0.70774074  0.47932739    -0.24800
H2779       H  0.12939408  0.69906807  0.43631163     0.09100
H2780       H  0.11284193  0.71613464  0.46515357     0.12700
H2781       H  0.07641422  0.66226087  0.42559200     0.12700
H2782       H  0.04660572  0.66706328  0.44701026     0.12400
H2783       H  0.03085460  0.68201222  0.47700808     0.13000
H2784       H  0.08394722  0.71887540  0.48850095     0.14900
C2785       C  0.94511266  0.66547624  0.57717218    -0.05100
C2786       C  0.94748415  0.68604091  0.58283791    -0.05000
C2787       C  0.96337118  0.69766314  0.57504653    -0.23200
C2788       C  0.97703144  0.68889163  0.56135058     0.19000
C2789       C  0.97453376  0.66822253  0.55539233     0.16200
C2790       C  0.95865602  0.65660742  0.56344618    -0.18200
C2791       C  0.98796108  0.65952615  0.54148193    -0.20100
C2792       C  0.00366768  0.67118624  0.53344412    -0.12600
C2793       C  0.00645558  0.69169532  0.53936725     0.04100
C2794       C  0.99309191  0.70042823  0.55346708    -0.24800
H2795       H  0.93715079  0.69298119  0.59351554     0.09100
H2796       H  0.96499626  0.71347527  0.57975388     0.12700
H2797       H  0.95680075  0.64069382  0.55913324     0.12700
H2798       H  0.98627677  0.64372302  0.53675263     0.12400
H2799       H  0.01380306  0.66403970  0.52271020     0.13000
H2800       H  0.99499323  0.71625408  0.55805968     0.14900
C2801       C  0.05478777  0.74916947  0.54434480    -0.05100
C2802       C  0.04595894  0.75543063  0.56282515    -0.05000
C2803       C  0.05375853  0.77202339  0.57387900    -0.23200
C2804       C  0.07057427  0.78276108  0.56672597     0.19000
C2805       C  0.07951577  0.77683107  0.54809144     0.16200
C2806       C  0.07159597  0.76009151  0.53704635    -0.18200
C2807       C  0.09637497  0.78762705  0.54095819    -0.20100
C2808       C  0.10448290  0.80388832  0.55234963    -0.12600
C2809       C  0.09588187  0.80957198  0.57102282     0.04100
C2810       C  0.07882086  0.79909170  0.57807219    -0.24800
H2811       H  0.03300423  0.74743813  0.56887550     0.09100
H2812       H  0.04669903  0.77637273  0.58811168     0.12700
H2813       H  0.07862904  0.75552307  0.52286703     0.12700
H2814       H  0.10345552  0.78331054  0.52673072     0.12400
H2815       H  0.11778678  0.81173103  0.54688629     0.13000
H2816       H  0.07230310  0.80340094  0.59259715     0.14900
C2817       C  0.91625360  0.16493023  0.66025876    -0.05100
C2818       C  0.91511502  0.16109169  0.68131414    -0.05000
C2819       C  0.92939623  0.16942571  0.69476850    -0.23200
C2820       C  0.94500520  0.18173677  0.68731377     0.19000
C2821       C  0.94673149  0.18506934  0.66602012     0.16200
C2822       C  0.93230204  0.17658269  0.65257935    -0.18200
C2823       C  0.96247847  0.19735976  0.65868028    -0.20100
C2824       C  0.97568741  0.20717624  0.67239586    -0.12600
C2825       C  0.97322277  0.20482596  0.69353417     0.04100
C2826       C  0.95830189  0.19158639  0.70088902    -0.24800
H2827       H  0.90301125  0.15176979  0.68730405     0.09100
H2828       H  0.92800231  0.16658933  0.71102369     0.12700
H2829       H  0.93327647  0.17928328  0.63625618     0.12700
H2830       H  0.96407235  0.20002490  0.64242025     0.12400
H2831       H  0.98695150  0.21762164  0.66656842     0.13000
H2832       H  0.95636806  0.18987929  0.71726331     0.14900
C2833       C  0.69406633  0.25132026  0.69881299    -0.05100
C2834       C  0.67613459  0.25481246  0.70968296    -0.05000
C2835       C  0.66310141  0.27059030  0.70414962    -0.23200
C2836       C  0.66770494  0.28327147  0.68764722     0.19000
C2837       C  0.68591063  0.28032736  0.67690511     0.16200
C2838       C  0.69896543  0.26436791  0.68253953    -0.18200
C2839       C  0.69051372  0.29313390  0.66041264    -0.20100
C2840       C  0.67691929  0.30823658  0.65422514    -0.12600
C2841       C  0.65859370  0.31072803  0.66443855     0.04100
C2842       C  0.65414959  0.29847919  0.68134530    -0.24800
H2843       H  0.67191359  0.24512282  0.72235946     0.09100
H2844       H  0.64927540  0.27267362  0.71260056     0.12700
H2845       H  0.71275109  0.26197804  0.67410322     0.12700
H2846       H  0.70439026  0.29117376  0.65203137     0.12400
H2847       H  0.68036488  0.31759053  0.64105330     0.13000
H2848       H  0.63990464  0.30041751  0.68911660     0.14900
C2849       C  0.70707703  0.19387781  0.74451935    -0.05100
C2850       C  0.71553046  0.17465822  0.74881235    -0.05000
C2851       C  0.70838117  0.16290947  0.76511429    -0.23200
C2852       C  0.69270534  0.17021989  0.77738605     0.19000
C2853       C  0.68439759  0.18969403  0.77338074     0.16200
C2854       C  0.69163411  0.20132717  0.75709951    -0.18200
C2855       C  0.66876583  0.19717373  0.78555320    -0.20100
C2856       C  0.66124501  0.18535958  0.80147899    -0.12600
C2857       C  0.66921713  0.16593813  0.80541708     0.04100
C2858       C  0.68500017  0.15838827  0.79343629    -0.24800
H2859       H  0.72741236  0.16854533  0.73937031     0.09100
H2860       H  0.71495831  0.14803529  0.76798877     0.12700
H2861       H  0.68499575  0.21616739  0.75413993     0.12700
H2862       H  0.66224881  0.21207281  0.78264320     0.12400
H2863       H  0.64900707  0.19122212  0.81062274     0.13000
H2864       H  0.69106064  0.14332391  0.79653611     0.14900
C2865       C  0.75210198  0.20544807  0.68567215    -0.05100
C2866       C  0.75465649  0.21323908  0.66580193    -0.05000
C2867       C  0.77025053  0.20614115  0.65336981    -0.23200
C2868       C  0.78368470  0.19119870  0.66060168     0.19000
C2869       C  0.78163094  0.18374591  0.68077556     0.16200
C2870       C  0.76591869  0.19087787  0.69311137    -0.18200
C2871       C  0.79512376  0.16898398  0.68820285    -0.20100
C2872       C  0.81026552  0.16134498  0.67565507    -0.12600
C2873       C  0.81217506  0.16827398  0.65547647     0.04100
C2874       C  0.79894540  0.18334008  0.64799847    -0.24800
H2875       H  0.74431056  0.22450062  0.65965554     0.09100
H2876       H  0.77163351  0.21214612  0.63800768     0.12700
H2877       H  0.76434433  0.18486588  0.70845801     0.12700
H2878       H  0.79381917  0.16316539  0.70364464     0.12400
H2879       H  0.82037677  0.14974213  0.68157007     0.13000
H2880       H  0.80044977  0.18871804  0.63240887     0.14900
C2881       C  0.49360672  0.19348356  0.54594340    -0.05100
C2882       C  0.48567308  0.17617217  0.53574322    -0.05000
C2883       C  0.46920559  0.16555089  0.54348813    -0.23200
C2884       C  0.46017587  0.17199902  0.56158705     0.19000
C2885       C  0.46741216  0.18978008  0.57167622     0.16200
C2886       C  0.48412507  0.20041296  0.56381430    -0.18200
C2887       C  0.45808801  0.19626775  0.58972530    -0.20100
C2888       C  0.44233724  0.18480967  0.59806161    -0.12600
C2889       C  0.43575993  0.16669504  0.58852078     0.04100
C2890       C  0.44442930  0.16057292  0.57007550    -0.24800
H2891       H  0.49243887  0.17045356  0.52186566     0.09100
H2892       H  0.46376132  0.15206043  0.53548700     0.12700
H2893       H  0.48990120  0.21379378  0.57176201     0.12700
H2894       H  0.46328729  0.20989469  0.59764113     0.12400
H2895       H  0.43574508  0.18962429  0.61236925     0.13000
H2896       H  0.43934061  0.14655220  0.56276440     0.14900
C2897       C  0.59108023  0.16384139  0.44082180    -0.05100
C2898       C  0.60338273  0.17651538  0.45299650    -0.05000
C2899       C  0.59497926  0.18830038  0.46857193    -0.23200
C2900       C  0.57419021  0.18732298  0.47230688     0.19000
C2901       C  0.56169258  0.17484981  0.45975629     0.16200
C2902       C  0.57020550  0.16333075  0.44396364    -0.18200
C2903       C  0.54100312  0.17357569  0.46364343    -0.20100
C2904       C  0.53287513  0.18386023  0.48033798    -0.12600
C2905       C  0.54522028  0.19584781  0.49330256     0.04100
C2906       C  0.56581708  0.19797320  0.48883154    -0.24800
H2907       H  0.61952001  0.17701767  0.45059482     0.09100
H2908       H  0.60478521  0.19777737  0.47799997     0.12700
H2909       H  0.56076956  0.15346950  0.43451243     0.12700
H2910       H  0.53120390  0.16417005  0.45412605     0.12400
H2911       H  0.51691798  0.18211784  0.48331658     0.13000
H2912       H  0.57550396  0.20709622  0.49874272     0.14900
C2913       C  0.57536220  0.30015952  0.59920604    -0.05100
C2914       C  0.56222266  0.28792041  0.61063703    -0.05000
C2915       C  0.55238377  0.27115083  0.60156327    -0.23200
C2916       C  0.55571633  0.26624103  0.58093877     0.19000
C2917       C  0.56926593  0.27832491  0.56950003     0.16200
C2918       C  0.57888156  0.29525737  0.57865242    -0.18200
C2919       C  0.57301252  0.27327668  0.54907891    -0.20100
C2920       C  0.56329977  0.25659539  0.53992806    -0.12600
C2921       C  0.54942164  0.24463748  0.55087969     0.04100
C2922       C  0.54576209  0.24954064  0.57152537    -0.24800
H2923       H  0.55956388  0.29141770  0.62658455     0.09100
H2924       H  0.54220388  0.26202191  0.61067031     0.12700
H2925       H  0.58924142  0.30455614  0.56990392     0.12700
H2926       H  0.58342848  0.28228706  0.54012356     0.12400
H2927       H  0.56647050  0.25327411  0.52404869     0.13000
H2928       H  0.53529134  0.24036851  0.58025929     0.14900
C2929       C  0.70083475  0.05291230  0.49897450    -0.05100
C2930       C  0.70850202  0.07151766  0.49155128    -0.05000
C2931       C  0.69843539  0.08213319  0.47602706    -0.23200
C2932       C  0.68051215  0.07435658  0.46752715     0.19000
C2933       C  0.67283623  0.05541927  0.47441761     0.16200
C2934       C  0.68304254  0.04481389  0.49007979    -0.18200
C2935       C  0.65497970  0.04756412  0.46564116    -0.20100
C2936       C  0.64477712  0.05848693  0.45033707    -0.12600
C2937       C  0.65222486  0.07742138  0.44373864     0.04100
C2938       C  0.67010443  0.08526718  0.45230459    -0.24800
H2939       H  0.72217833  0.07811628  0.49796391     0.09100
H2940       H  0.70458095  0.09655233  0.47080629     0.12700
H2941       H  0.67697276  0.03042141  0.49547538     0.12700
H2942       H  0.64890523  0.03303246  0.47063139     0.12400
H2943       H  0.63105529  0.05223921  0.44365429     0.13000
H2944       H  0.67589881  0.09981786  0.44699785     0.14900
C2945       C  0.70220831  0.99807587  0.55078391    -0.05100
C2946       C  0.71272353  0.98706962  0.56596538    -0.05000
C2947       C  0.70376514  0.97041572  0.57565618    -0.23200
C2948       C  0.68404254  0.96449851  0.57048849     0.19000
C2949       C  0.67327006  0.97533547  0.55519957     0.16200
C2950       C  0.68246181  0.99195331  0.54535220    -0.18200
C2951       C  0.65335199  0.96959961  0.55034208    -0.20100
C2952       C  0.64410416  0.95355679  0.56083553    -0.12600
C2953       C  0.65473221  0.94289447  0.57608846     0.04100
C2954       C  0.67475288  0.94823193  0.58070992    -0.24800
H2955       H  0.72793224  0.99136031  0.57045492     0.09100
H2956       H  0.71219682  0.96230522  0.58737334     0.12700
H2957       H  0.67407753  0.00033043  0.53378417     0.12700
H2958       H  0.64481830  0.97776692  0.53874321     0.12400
H2959       H  0.62853457  0.94968171  0.55737194     0.13000
H2960       H  0.68278806  0.94014088  0.59273889     0.14900
C2961       C  0.75610814  0.05016391  0.55028698    -0.05100
C2962       C  0.76678627  0.03950651  0.56562399    -0.05000
C2963       C  0.78364138  0.04825944  0.57530572    -0.23200
C2964       C  0.79010171  0.06794477  0.56999763     0.19000
C2965       C  0.77970061  0.07874416  0.55442309     0.16200
C2966       C  0.76290811  0.06974213  0.54457495    -0.18200
C2967       C  0.78598977  0.09857538  0.54930604    -0.20100
C2968       C  0.80208785  0.10779848  0.55985552    -0.12600
C2969       C  0.81230109  0.09726745  0.57547658     0.04100
C2970       C  0.80646006  0.07722155  0.58032509    -0.24800
H2971       H  0.76202615  0.02438994  0.57030368     0.09100
H2972       H  0.79143164  0.03974365  0.58718285     0.12700
H2973       H  0.75485986  0.07822451  0.53284356     0.12700
H2974       H  0.77820854  0.10709887  0.53743134     0.12400
H2975       H  0.80642455  0.12329849  0.55606544     0.13000
H2976       H  0.81427822  0.06916463  0.59251842     0.14900
C2977       C  0.44333837  0.09386334  0.66591915    -0.05100
C2978       C  0.44650324  0.10061246  0.68608534    -0.05000
C2979       C  0.46287516  0.09334861  0.69758544    -0.23200
C2980       C  0.47623461  0.07918264  0.68903837     0.19000
C2981       C  0.47280866  0.07210670  0.66880353     0.16200
C2982       C  0.45641888  0.07953506  0.65736130    -0.18200
C2983       C  0.48592108  0.05784073  0.66025394    -0.20100
C2984       C  0.50239546  0.05071639  0.67152442    -0.12600
C2985       C  0.50621730  0.05777489  0.69157462     0.04100
C2986       C  0.49299200  0.07204822  0.70027959    -0.24800
H2987       H  0.43642253  0.11171191  0.69277652     0.09100
H2988       H  0.46516706  0.09890369  0.71306721     0.12700
H2989       H  0.45387272  0.07435872  0.64176717     0.12700
H2990       H  0.48349082  0.05223726  0.64480343     0.12400
H2991       H  0.51230039  0.03976632  0.66434714     0.13000
H2992       H  0.49566066  0.07752176  0.71574221     0.14900
C2993       C  0.55611968  0.06235211  0.74869199    -0.05100
C2994       C  0.54711364  0.08000049  0.75678115    -0.05000
C2995       C  0.55562563  0.08989426  0.77382513    -0.23200
C2996       C  0.57331911  0.08235208  0.78301275     0.19000
C2997       C  0.58233699  0.06447820  0.77515546     0.16200
C2998       C  0.57365704  0.05459882  0.75819761    -0.18200
C2999       C  0.60015695  0.05697512  0.78411148    -0.20100
C3000       C  0.60927579  0.06739961  0.80040941    -0.12600
C3001       C  0.60059384  0.08530050  0.80806770     0.04100
C3002       C  0.58245029  0.09259355  0.79958872    -0.24800
H3003       H  0.53360702  0.08630345  0.74982134     0.09100
H3004       H  0.54852466  0.10358649  0.77964961     0.12700
H3005       H  0.58084013  0.04100304  0.75224064     0.12700
H3006       H  0.60725062  0.04329675  0.77824167     0.12400
H3007       H  0.62334095  0.06177394  0.80680871     0.13000
H3008       H  0.57591110  0.10655757  0.80548169     0.14900
C3009       C  0.56144300  0.00850571  0.69650407    -0.05100
C3010       C  0.58040548  0.00263340  0.70432258    -0.05000
C3011       C  0.59075494  0.98619420  0.69574483    -0.23200
C3012       C  0.58231246  0.97534883  0.67921815     0.19000
C3013       C  0.56320923  0.98107403  0.67131095     0.16200
C3014       C  0.55291829  0.99753014  0.68001396    -0.18200
C3015       C  0.55476707  0.97035638  0.65469004    -0.20100
C3016       C  0.56527294  0.95422956  0.64581362    -0.12600
C3017       C  0.58423152  0.94852087  0.65354418     0.04100
C3018       C  0.59267031  0.95897853  0.67034170    -0.24800
H3019       H  0.58736014  0.01085966  0.71696019     0.09100
H3020       H  0.60540069  0.98204280  0.70195577     0.12700
H3021       H  0.53828926  0.00181151  0.67383177     0.12700
H3022       H  0.54013585  0.97454693  0.64846841     0.12400
H3023       H  0.55867106  0.94618309  0.63286656     0.13000
H3024       H  0.60735334  0.95449151  0.67624131     0.14900
C3025       C  0.05134297  0.05545268  0.46429265    -0.05100
C3026       C  0.07128949  0.05819383  0.47123759    -0.05000
C3027       C  0.08535443  0.06839738  0.45903034    -0.23200
C3028       C  0.07961475  0.07607886  0.43977448     0.19000
C3029       C  0.05924298  0.07452469  0.43332161     0.16200
C3030       C  0.04529630  0.06428346  0.44560614    -0.18200
C3031       C  0.05331086  0.08241254  0.41426285    -0.20100
C3032       C  0.06761730  0.09086656  0.40123559    -0.12600
C3033       C  0.08808957  0.09144178  0.40696966     0.04100
C3034       C  0.09395750  0.08452890  0.42651108    -0.24800
H3035       H  0.07626796  0.05147493  0.48554973     0.09100
H3036       H  0.10086330  0.06962497  0.46431410     0.12700
H3037       H  0.02986100  0.06242943  0.44021341     0.12700
H3038       H  0.03770687  0.08153548  0.40919949     0.12400
H3039       H  0.06283527  0.09643258  0.38635773     0.13000
H3040       H  0.10973589  0.08511252  0.43103355     0.14900
C3041       C  0.91631462  0.08814023  0.58588925    -0.05100
C3042       C  0.91218512  0.06709175  0.58645112    -0.05000
C3043       C  0.92583618  0.05307447  0.57852520    -0.23200
C3044       C  0.94402126  0.05984274  0.57012485     0.19000
C3045       C  0.94886739  0.08088561  0.57027685     0.16200
C3046       C  0.93489235  0.09496946  0.57808210    -0.18200
C3047       C  0.96730148  0.08741720  0.56201453    -0.20100
C3048       C  0.98013033  0.07338302  0.55246458    -0.12600
C3049       C  0.97464204  0.05269129  0.55108101     0.04100
C3050       C  0.95697615  0.04594840  0.56072335    -0.24800
H3051       H  0.89817140  0.06154258  0.59280179     0.09100
H3052       H  0.92201148  0.03695896  0.57865190     0.12700
H3053       H  0.93825147  0.11119228  0.57782839     0.12700
H3054       H  0.97138547  0.10346248  0.56217866     0.12400
H3055       H  0.99360656  0.07889619  0.54501761     0.13000
H3056       H  0.95270807  0.02994369  0.55985696     0.14900
C3057       C  0.05934591  0.97419280  0.54494968    -0.05100
C3058       C  0.05999685  0.97731978  0.56618444    -0.05000
C3059       C  0.07129726  0.96418536  0.57876778    -0.23200
C3060       C  0.08205928  0.94782719  0.57020687     0.19000
C3061       C  0.08257144  0.94560222  0.54870410     0.16200
C3062       C  0.07127507  0.95880243  0.53627795    -0.18200
C3063       C  0.09343786  0.92950534  0.53998256    -0.20100
C3064       C  0.10280808  0.91501377  0.55245584    -0.12600
C3065       C  0.10125530  0.91621255  0.57383219     0.04100
C3066       C  0.09145041  0.93307463  0.58267900    -0.24800
H3067       H  0.05070283  0.98896466  0.57311989     0.09100
H3068       H  0.07085992  0.96623300  0.59521147     0.12700
H3069       H  0.07076222  0.95634161  0.51985610     0.12700
H3070       H  0.09415368  0.92775726  0.52351385     0.12400
H3071       H  0.11068624  0.90238011  0.54542308     0.13000
H3072       H  0.09042506  0.93418214  0.59918873     0.14900
C3073       C  0.91181531  0.08767222  0.40583083    -0.05100
C3074       C  0.92922137  0.08111137  0.39578513    -0.05000
C3075       C  0.94162329  0.06625887  0.40457381    -0.23200
C3076       C  0.93676183  0.05775427  0.42357119     0.19000
C3077       C  0.91898910  0.06398190  0.43360005     0.16200
C3078       C  0.90659370  0.07896371  0.42465263    -0.18200
C3079       C  0.91425343  0.05551091  0.45263975    -0.20100
C3080       C  0.92735668  0.04157672  0.46200741    -0.12600
C3081       C  0.94541188  0.03578399  0.45247631     0.04100
C3082       C  0.94974293  0.04364061  0.43298536    -0.24800
H3083       H  0.93339986  0.08784832  0.38130061     0.09100
H3084       H  0.95519465  0.06169812  0.39669760     0.12700
H3085       H  0.89318105  0.08417587  0.43242405     0.12700
H3086       H  0.90068574  0.06005658  0.46053124     0.12400
H3087       H  0.92365635  0.03586851  0.47705390     0.13000
H3088       H  0.96363325  0.03944741  0.42546364     0.14900
C3089       C  0.84543207  0.42706297  0.65651698    -0.05100
C3090       C  0.84376937  0.44805770  0.65249396    -0.05000
C3091       C  0.83277305  0.46066933  0.66541050    -0.23200
C3092       C  0.82348798  0.45252900  0.68274602     0.19000
C3093       C  0.82574607  0.43160061  0.68753007     0.16200
C3094       C  0.83666858  0.41892293  0.67427471    -0.18200
C3095       C  0.81658493  0.42373296  0.70518161    -0.20100
C3096       C  0.80446380  0.43628743  0.71736366    -0.12600
C3097       C  0.80131428  0.45674757  0.71188989     0.04100
C3098       C  0.81137571  0.46488879  0.69494783    -0.24800
H3099       H  0.85074761  0.45460148  0.63908936     0.09100
H3100       H  0.83128596  0.47673189  0.66168058     0.12700
H3101       H  0.83811591  0.40274729  0.67751576     0.12700
H3102       H  0.81828439  0.40776740  0.70918982     0.12400
H3103       H  0.79672176  0.42978153  0.73033659     0.13000
H3104       H  0.80909922  0.48077502  0.69079417     0.14900
C3105       C  0.69667632  0.46926849  0.69073816    -0.05100
C3106       C  0.70354762  0.46194599  0.67178285    -0.05000
C3107       C  0.69255094  0.44724084  0.66081348    -0.23200
C3108       C  0.67448654  0.43946159  0.66860101     0.19000
C3109       C  0.66698429  0.44722745  0.68723616     0.16200
C3110       C  0.67804677  0.46215453  0.69810877    -0.18200
C3111       C  0.64887200  0.43942441  0.69501144    -0.20100
C3112       C  0.63856411  0.42375491  0.68468308    -0.12600
C3113       C  0.64618818  0.41567299  0.66645818     0.04100
C3114       C  0.66406431  0.42369033  0.65835309    -0.24800
H3115       H  0.71779545  0.46712506  0.66567152     0.09100
H3116       H  0.69845700  0.44156600  0.64649434     0.12700
H3117       H  0.67254583  0.46756776  0.71270109     0.12700
H3118       H  0.64286173  0.44519887  0.70924093     0.12400
H3119       H  0.62477682  0.41767632  0.69105244     0.13000
H3120       H  0.66993627  0.41740745  0.64426172     0.14900
C3121       C  0.78170742  0.55150833  0.68183995    -0.05100
C3122       C  0.78543653  0.54284238  0.66252127    -0.05000
C3123       C  0.79995957  0.55130042  0.64964610    -0.23200
C3124       C  0.81119943  0.56841223  0.65596917     0.19000
C3125       C  0.80722392  0.57752742  0.67514391     0.16200
C3126       C  0.79234265  0.56923335  0.68775491    -0.18200
C3127       C  0.81867608  0.59439169  0.68174215    -0.20100
C3128       C  0.83407703  0.60205022  0.66954825    -0.12600
C3129       C  0.83807766  0.59312611  0.65051431     0.04100
C3130       C  0.82657139  0.57638077  0.64366940    -0.24800
H3131       H  0.77763365  0.52907812  0.65763721     0.09100
H3132       H  0.80280976  0.54409979  0.63501832     0.12700
H3133       H  0.78984404  0.57599024  0.70266983     0.12700
H3134       H  0.81585622  0.60152084  0.69640978     0.12400
H3135       H  0.84281471  0.61508471  0.67483741     0.13000
H3136       H  0.82970436  0.56957787  0.62890401     0.14900
C3137       C  0.66294077  0.59239183  0.82905707    -0.05100
C3138       C  0.65347670  0.57390938  0.82369259    -0.05000
C3139       C  0.66055845  0.56230964  0.80730711    -0.23200
C3140       C  0.67706826  0.56920063  0.79592756     0.19000
C3141       C  0.68642973  0.58799358  0.80108236     0.16200
C3142       C  0.67954318  0.59927212  0.81784655    -0.18200
C3143       C  0.70272730  0.59503842  0.78958147    -0.20100
C3144       C  0.71057550  0.58296158  0.77396242    -0.12600
C3145       C  0.70225025  0.56362409  0.76954325     0.04100
C3146       C  0.68489912  0.55724295  0.78004883    -0.24800
H3147       H  0.64057625  0.56852581  0.83220047     0.09100
H3148       H  0.65318419  0.54795288  0.80358100     0.12700
H3149       H  0.68680918  0.61358102  0.82202079     0.12700
H3150       H  0.70987691  0.60954912  0.79315311     0.12400
H3151       H  0.72387761  0.58830882  0.76609332     0.13000
H3152       H  0.67830341  0.54237273  0.77687324     0.14900
C3153       C  0.44680031  0.58932939  0.15682803    -0.05100
C3154       C  0.45485485  0.60006409  0.17360568    -0.05000
C3155       C  0.47060192  0.59170058  0.18515989    -0.23200
C3156       C  0.47832621  0.57242488  0.18012871     0.19000
C3157       C  0.47022132  0.56157057  0.16317774     0.16200
C3158       C  0.45450878  0.57014164  0.15158321    -0.18200
C3159       C  0.47793588  0.54233051  0.15816202    -0.20100
C3160       C  0.49347193  0.53382889  0.16990848    -0.12600
C3161       C  0.50157121  0.54441093  0.18689790     0.04100
C3162       C  0.49393576  0.56379796  0.19183623    -0.24800
H3163       H  0.44898806  0.61495532  0.17762855     0.09100
H3164       H  0.47667941  0.60024769  0.19804903     0.12700
H3165       H  0.44821108  0.56196305  0.13853875     0.12700
H3166       H  0.47191534  0.53382892  0.14520956     0.12400
H3167       H  0.49906801  0.51888445  0.16570092     0.13000
H3168       H  0.50009865  0.57221031  0.20478289     0.14900
C3169       C  0.55242014  0.49096550  0.19575489    -0.05100
C3170       C  0.54598658  0.48257422  0.17690477    -0.05000
C3171       C  0.55649342  0.46655155  0.16791814    -0.23200
C3172       C  0.57363878  0.45855727  0.17759140     0.19000
C3173       C  0.57983517  0.46622897  0.19693048     0.16200
C3174       C  0.56914087  0.48234488  0.20592962    -0.18200
C3175       C  0.59698143  0.45803323  0.20662426    -0.20100
C3176       C  0.60823007  0.44287854  0.19692249    -0.12600
C3177       C  0.60244802  0.43580193  0.17746864     0.04100
C3178       C  0.58499605  0.44338700  0.16798963    -0.24800
H3179       H  0.53306700  0.48871627  0.16873837     0.09100
H3180       H  0.55146063  0.46072523  0.15318224     0.12700
H3181       H  0.57420151  0.48851976  0.22051299     0.12700
H3182       H  0.60189930  0.46361769  0.22148327     0.12400
H3183       H  0.62168118  0.43696585  0.20434172     0.13000
H3184       H  0.58057473  0.43774714  0.15297362     0.14900
C3185       C  0.49678424  0.69832585  0.04369922    -0.05100
C3186       C  0.48526248  0.70943673  0.05778983    -0.05000
C3187       C  0.46882426  0.70035666  0.06738858    -0.23200
C3188       C  0.46376023  0.67997168  0.06318751     0.19000
C3189       C  0.47503688  0.66873589  0.04879578     0.16200
C3190       C  0.49133418  0.67803701  0.03902778    -0.18200
C3191       C  0.47015690  0.64821310  0.04482638    -0.20100
C3192       C  0.45454498  0.63876393  0.05544128    -0.12600
C3193       C  0.44355059  0.64982040  0.06988504     0.04100
C3194       C  0.44795077  0.67045822  0.07352823    -0.24800
H3195       H  0.48906672  0.72511098  0.06157735     0.09100
H3196       H  0.46030297  0.70915742  0.07836451     0.12700
H3197       H  0.50009608  0.66923690  0.02824005     0.12700
H3198       H  0.47866628  0.63938935  0.03385991     0.12400
H3199       H  0.45121485  0.62277212  0.05266783     0.13000
H3200       H  0.43943635  0.67882964  0.08485960     0.14900
C3201       C  0.54870632  0.75216796  0.04302217    -0.05100
C3202       C  0.53904407  0.76221318  0.05924467    -0.05000
C3203       C  0.54824513  0.77876528  0.06914113    -0.23200
C3204       C  0.56733087  0.78552367  0.06308485     0.19000
C3205       C  0.57695397  0.77597215  0.04640505     0.16200
C3206       C  0.56751325  0.75949279  0.03638433    -0.18200
C3207       C  0.59616752  0.78262980  0.04047563    -0.20100
C3208       C  0.60603407  0.79813578  0.05142403    -0.12600
C3209       C  0.59671202  0.80729593  0.06824045     0.04100
C3210       C  0.57723319  0.80124679  0.07381503    -0.24800
H3211       H  0.52451823  0.75701749  0.06464015     0.09100
H3212       H  0.54063920  0.78596433  0.08184528     0.12700
H3213       H  0.57515236  0.75198648  0.02387479     0.12700
H3214       H  0.60374704  0.77551453  0.02771174     0.12400
H3215       H  0.62109143  0.80275209  0.04706339     0.13000
H3216       H  0.57014302  0.80835536  0.08689253     0.14900
C3217       C  0.55272639  0.69372681  0.99550520    -0.05100
C3218       C  0.54807168  0.67303680  0.99182007    -0.05000
C3219       C  0.55816075  0.66206188  0.97676471    -0.23200
C3220       C  0.57294207  0.67163397  0.96498553     0.19000
C3221       C  0.57767112  0.69247066  0.96846610     0.16200
C3222       C  0.56764766  0.70332384  0.98379161    -0.18200
C3223       C  0.59226382  0.70213730  0.95645784    -0.20100
C3224       C  0.60204492  0.69126261  0.94110745    -0.12600
C3225       C  0.59747675  0.67059514  0.93772712     0.04100
C3226       C  0.58299491  0.66077804  0.94969530    -0.24800
H3227       H  0.53670871  0.66523205  0.00069891     0.09100
H3228       H  0.55434594  0.64612315  0.97428540     0.12700
H3229       H  0.57129698  0.71928777  0.98640121     0.12700
H3230       H  0.59603205  0.71809291  0.95887540     0.12400
H3231       H  0.61322550  0.69890652  0.93185875     0.13000
H3232       H  0.57949710  0.64479920  0.94692961     0.14900
C3233       C  0.67285249  0.44289537  0.09905768    -0.05100
C3234       C  0.69399741  0.44420733  0.09996735    -0.05000
C3235       C  0.70423087  0.45945716  0.08923894    -0.23200
C3236       C  0.69347548  0.47355177  0.07723806     0.19000
C3237       C  0.67216900  0.47223537  0.07614608     0.16200
C3238       C  0.66197760  0.45701514  0.08719137    -0.18200
C3239       C  0.66143405  0.48604710  0.06386285    -0.20100
C3240       C  0.67165019  0.50096569  0.05270135    -0.12600
C3241       C  0.69281306  0.50260923  0.05378188     0.04100
C3242       C  0.70364426  0.48883753  0.06621571    -0.24800
H3243       H  0.70256729  0.43334608  0.10900865     0.09100
H3244       H  0.72054986  0.46013758  0.09021684     0.12700
H3245       H  0.64566256  0.45591289  0.08636085     0.12700
H3246       H  0.64512136  0.48526858  0.06281440     0.12400
H3247       H  0.66289494  0.51143537  0.04338726     0.13000
H3248       H  0.71996129  0.48983463  0.06710792     0.14900
C3249       C  0.80398083  0.59899824  0.07278073    -0.05100
C3250       C  0.79156470  0.61037691  0.05956302    -0.05000
C3251       C  0.77572687  0.60095042  0.04881790    -0.23200
C3252       C  0.77184453  0.58002334  0.05139248     0.19000
C3253       C  0.78453090  0.56833845  0.06435812     0.16200
C3254       C  0.80069291  0.57786632  0.07479496    -0.18200
C3255       C  0.78030958  0.54752887  0.06729414    -0.20100
C3256       C  0.76318030  0.53860385  0.05824119    -0.12600
C3257       C  0.75019029  0.55019543  0.04572261     0.04100
C3258       C  0.75499559  0.57080518  0.04190258    -0.24800
H3259       H  0.79391454  0.62668050  0.05792583     0.09100
H3260       H  0.76614846  0.61014811  0.03897239     0.12700
H3261       H  0.81018848  0.56910059  0.08512903     0.12700
H3262       H  0.78989708  0.53830798  0.07710788     0.12400
H3263       H  0.75991830  0.52267372  0.06128664     0.13000
H3264       H  0.74506437  0.57998063  0.03238617     0.14900
C3265       C  0.67093731  0.59512313  0.93609748    -0.05100
C3266       C  0.69171084  0.59846122  0.93882626    -0.05000
C3267       C  0.70222365  0.58880848  0.95476853    -0.23200
C3268       C  0.69208482  0.57563210  0.96815866     0.19000
C3269       C  0.67120559  0.57198463  0.96524043     0.16200
C3270       C  0.66076130  0.58181543  0.94928430    -0.18200
C3271       C  0.66107857  0.55869861  0.97843355    -0.20100
C3272       C  0.67145681  0.54920800  0.99450021    -0.12600
C3273       C  0.69215863  0.55292744  0.99784147     0.04100
C3274       C  0.70240128  0.56616446  0.98448276    -0.24800
H3275       H  0.69967828  0.60880149  0.92879855     0.09100
H3276       H  0.71822336  0.59176773  0.95672539     0.12700
H3277       H  0.64468738  0.57932441  0.94718088     0.12700
H3278       H  0.64509215  0.55570583  0.97638465     0.12400
H3279       H  0.66313892  0.53914143  0.00450616     0.13000
H3280       H  0.71837691  0.56909570  0.98674416     0.14900
C3281       C  0.58747599  0.57328909  0.30811282    -0.05100
C3282       C  0.59450653  0.55345417  0.30427527    -0.05000
C3283       C  0.58624355  0.54185561  0.28819461    -0.23200
C3284       C  0.57083112  0.54997290  0.27575124     0.19000
C3285       C  0.56337181  0.56975447  0.27996882     0.16200
C3286       C  0.57173934  0.58126306  0.29609533    -0.18200
C3287       C  0.54793894  0.57790254  0.26773335    -0.20100
C3288       C  0.54024096  0.56681973  0.25113861    -0.12600
C3289       C  0.54783053  0.54733423  0.24633468     0.04100
C3290       C  0.56301792  0.53887585  0.25895539    -0.24800
H3291       H  0.60668423  0.54716951  0.31345732     0.09100
H3292       H  0.59212120  0.52670436  0.28528276     0.12700
H3293       H  0.56634414  0.59659885  0.29909833     0.12700
H3294       H  0.54199616  0.59299606  0.27082103     0.12400
H3295       H  0.52852573  0.57376819  0.24183227     0.13000
H3296       H  0.56895941  0.52384107  0.25558049     0.14900
C3297       C  0.69396533  0.69190022  0.25146146    -0.05100
C3298       C  0.70546893  0.67735624  0.26229590    -0.05000
C3299       C  0.69710630  0.66624131  0.27836699    -0.23200
C3300       C  0.67697789  0.66926997  0.28388871     0.19000
C3301       C  0.66522696  0.68393655  0.27330049     0.16200
C3302       C  0.67382807  0.69526279  0.25727476    -0.18200
C3303       C  0.64498677  0.68678382  0.27875329    -0.20100
C3304       C  0.63645968  0.67510036  0.29438564    -0.12600
C3305       C  0.64805364  0.66051424  0.30487458     0.04100
C3306       C  0.66834461  0.65772619  0.29967206    -0.24800
H3307       H  0.72101072  0.67444667  0.25829198     0.09100
H3308       H  0.70633963  0.65509476  0.28632996     0.12700
H3309       H  0.66469868  0.70631507  0.24905536     0.12700
H3310       H  0.63572287  0.69793061  0.27083693     0.12400
H3311       H  0.62080127  0.67740991  0.29833409     0.13000
H3312       H  0.67727782  0.64644505  0.30781530     0.14900
C3313       C  0.74665061  0.69638368  0.19896953    -0.05100
C3314       C  0.75872947  0.68211989  0.20947585    -0.05000
C3315       C  0.77543360  0.67329990  0.20006244    -0.23200
C3316       C  0.78023171  0.67835649  0.17985406     0.19000
C3317       C  0.76841931  0.69291864  0.16921442     0.16200
C3318       C  0.75188262  0.70199862  0.17890840    -0.18200
C3319       C  0.77302771  0.69773637  0.14886224    -0.20100
C3320       C  0.78887912  0.68784498  0.13899397    -0.12600
C3321       C  0.80050358  0.67324717  0.14941786     0.04100
C3322       C  0.79632980  0.66874915  0.16993272    -0.24800
H3323       H  0.75517726  0.67762661  0.22496690     0.09100
H3324       H  0.78436454  0.66221796  0.20845805     0.12700
H3325       H  0.74272363  0.71293301  0.17055786     0.12700
H3326       H  0.76415059  0.70886667  0.14047482     0.12400
H3327       H  0.79202762  0.69144748  0.12317585     0.13000
H3328       H  0.80533270  0.65742303  0.17793178     0.14900
C3329       C  0.69104960  0.74602320  0.19828912    -0.05100
C3330       C  0.67641524  0.75741323  0.20871586    -0.05000
C3331       C  0.66694065  0.77408618  0.19926756    -0.23200
C3332       C  0.67173539  0.77952392  0.17911851     0.19000
C3333       C  0.68640020  0.76815802  0.16848876     0.16200
C3334       C  0.69601640  0.75164618  0.17815710    -0.18200
C3335       C  0.69108078  0.77335676  0.14826037    -0.20100
C3336       C  0.68117652  0.78954378  0.13854797    -0.12600
C3337       C  0.66655929  0.80089365  0.14892958     0.04100
C3338       C  0.66198225  0.79593487  0.16929788    -0.24800
H3339       H  0.67238739  0.75352885  0.22424792     0.09100
H3340       H  0.65575812  0.78263539  0.20767028     0.12700
H3341       H  0.70718094  0.74298512  0.16982737     0.12700
H3342       H  0.70227890  0.76479088  0.13989323     0.12400
H3343       H  0.68484896  0.79322236  0.12286850     0.13000
H3344       H  0.65065273  0.80468030  0.17730801     0.14900
C3345       C  0.03673258  0.30224148  0.80164370    -0.05100
C3346       C  0.03907675  0.29439532  0.82156953    -0.05000
C3347       C  0.05277589  0.30328484  0.83530530    -0.23200
C3348       C  0.06433984  0.32014337  0.82932369     0.19000
C3349       C  0.06150987  0.32860972  0.80960094     0.16200
C3350       C  0.04766896  0.31967786  0.79595567    -0.18200
C3351       C  0.07290755  0.34561387  0.80366117    -0.20100
C3352       C  0.08685358  0.35431068  0.81723442    -0.12600
C3353       C  0.08983241  0.34589507  0.83673666     0.04100
C3354       C  0.07878712  0.32861802  0.84263939    -0.24800
H3355       H  0.03082221  0.28093697  0.82633258     0.09100
H3356       H  0.05462751  0.29672297  0.85042177     0.12700
H3357       H  0.04610869  0.32577908  0.78060942     0.12700
H3358       H  0.07098046  0.35221770  0.78857647     0.12400
H3359       H  0.09541124  0.36760078  0.81254916     0.13000
H3360       H  0.08126858  0.32206045  0.85768456     0.14900
C3361       C  0.71791540  0.46148615  0.79661854    -0.05100
C3362       C  0.72293150  0.44080450  0.79898466    -0.05000
C3363       C  0.71126623  0.42809844  0.81143027    -0.23200
C3364       C  0.69461034  0.43599550  0.82191043     0.19000
C3365       C  0.69040832  0.45713689  0.82075444     0.16200
C3366       C  0.70199676  0.46969449  0.80803582    -0.18200
C3367       C  0.67415021  0.46521081  0.83164392    -0.20100
C3368       C  0.66149509  0.45230343  0.84269789    -0.12600
C3369       C  0.66463892  0.43107164  0.84277394     0.04100
C3370       C  0.68161395  0.42305642  0.83282956    -0.24800
H3371       H  0.73512825  0.43422524  0.79028767     0.09100
H3372       H  0.71485990  0.41198030  0.81231583     0.12700
H3373       H  0.69819065  0.48572917  0.80642614     0.12700
H3374       H  0.67089756  0.48142553  0.83116637     0.12400
H3375       H  0.64871210  0.45877919  0.85058053     0.13000
H3376       H  0.68422409  0.40670775  0.83297751     0.14900
C3377       C  0.30796792  0.50342610  0.95386469    -0.05100
C3378       C  0.32678175  0.50786551  0.96311150    -0.05000
C3379       C  0.33931015  0.52301769  0.95524235    -0.23200
C3380       C  0.33329875  0.53413849  0.93798839     0.19000
C3381       C  0.31428682  0.53016499  0.92871306     0.16200
C3382       C  0.30174214  0.51483203  0.93669961    -0.18200
C3383       C  0.30826124  0.54150203  0.91150532    -0.20100
C3384       C  0.32101249  0.55649616  0.90352427    -0.12600
C3385       C  0.33995222  0.56025000  0.91256686     0.04100
C3386       C  0.34603739  0.54910918  0.92980816    -0.24800
H3387       H  0.33204514  0.49942517  0.97635651     0.09100
H3388       H  0.35378306  0.52592592  0.96257770     0.12700
H3389       H  0.28728822  0.51167393  0.92942523     0.12700
H3390       H  0.29374468  0.53874400  0.90421310     0.12400
H3391       H  0.31618791  0.56514022  0.89023648     0.13000
H3392       H  0.36065389  0.55217027  0.93680165     0.14900
C3393       C  0.24864675  0.45730742  0.94867992    -0.05100
C3394       C  0.24440933  0.46339212  0.92847387    -0.05000
C3395       C  0.22773237  0.45537353  0.91787156    -0.23200
C3396       C  0.21493498  0.44123622  0.92734012     0.19000
C3397       C  0.21862949  0.43557832  0.94790647     0.16200
C3398       C  0.23542549  0.44362904  0.95840498    -0.18200
C3399       C  0.20577120  0.42152439  0.95745641    -0.20100
C3400       C  0.18978733  0.41262871  0.94650469    -0.12600
C3401       C  0.18648562  0.41767299  0.92591321     0.04100
C3402       C  0.19886039  0.43220398  0.91645095    -0.24800
H3403       H  0.25431724  0.47390423  0.92063391     0.09100
H3404       H  0.22506362  0.45993700  0.90214645     0.12700
H3405       H  0.23836747  0.43895255  0.97405793     0.12700
H3406       H  0.20836378  0.41706125  0.97322264     0.12400
H3407       H  0.18038375  0.40129875  0.95384816     0.13000
H3408       H  0.19630201  0.43594901  0.90047773     0.14900
C3409       C  0.29993434  0.44739512  0.00254101    -0.05100
C3410       C  0.29601227  0.42632755  0.00381701    -0.05000
C3411       C  0.30557494  0.41447278  0.01876853    -0.23200
C3412       C  0.31901626  0.42357075  0.03278981     0.19000
C3413       C  0.32248141  0.44490159  0.03207261     0.16200
C3414       C  0.31298026  0.45663621  0.01691533    -0.18200
C3415       C  0.33572169  0.45407403  0.04626265    -0.20100
C3416       C  0.34583124  0.44212997  0.06073842    -0.12600
C3417       C  0.34285486  0.42092122  0.06112788     0.04100
C3418       C  0.32930060  0.41169167  0.04730905    -0.24800
H3419       H  0.28608752  0.41889263  0.99281024     0.09100
H3420       H  0.30270816  0.39816392  0.01916260     0.12700
H3421       H  0.31594998  0.47292309  0.01612881     0.12700
H3422       H  0.33844142  0.47040998  0.04599111     0.12400
H3423       H  0.35622846  0.44933629  0.07144998     0.13000
H3424       H  0.32700450  0.39528096  0.04778016     0.14900
C3425       C  0.50204735  0.45206487  0.79649945    -0.05100
C3426       C  0.51017367  0.43504667  0.78622389    -0.05000
C3427       C  0.52655015  0.42432129  0.79441871    -0.23200
C3428       C  0.53527012  0.43035731  0.81307817     0.19000
C3429       C  0.52755727  0.44762430  0.82343104     0.16200
C3430       C  0.51101384  0.45835093  0.81510385    -0.18200
C3431       C  0.53641743  0.45373424  0.84206076    -0.20100
C3432       C  0.55255567  0.44273113  0.85044650    -0.12600
C3433       C  0.55999991  0.42535786  0.84045814     0.04100
C3434       C  0.55141085  0.41929019  0.82168306    -0.24800
H3435       H  0.50374924  0.42978770  0.77184031     0.09100
H3436       H  0.53228942  0.41119230  0.78621656     0.12700
H3437       H  0.50502867  0.47141563  0.82322304     0.12700
H3438       H  0.53076812  0.46692001  0.85022401     0.12400
H3439       H  0.55905404  0.44752600  0.86496313     0.13000
H3440       H  0.55717069  0.40586618  0.81396823     0.14900
C3441       C  0.44835481  0.50529345  0.79980340    -0.05100
C3442       C  0.43171490  0.51471050  0.79011333    -0.05000
C3443       C  0.42148457  0.53073381  0.79945040    -0.23200
C3444       C  0.42755669  0.53775337  0.81877112     0.19000
C3445       C  0.44423992  0.52856768  0.82880561     0.16200
C3446       C  0.45460579  0.51243061  0.81922928    -0.18200
C3447       C  0.45007519  0.53559430  0.84831841    -0.20100
C3448       C  0.43935167  0.55134137  0.85780992    -0.12600
C3449       C  0.42275856  0.56037621  0.84789161     0.04100
C3450       C  0.41703943  0.55367054  0.82829508    -0.24800
H3451       H  0.42644729  0.50968049  0.77518856     0.09100
H3452       H  0.40871263  0.53756019  0.79157462     0.12700
H3453       H  0.46730345  0.50532977  0.82697965     0.12700
H3454       H  0.46278435  0.52879148  0.85630566     0.12400
H3455       H  0.44387549  0.55640783  0.87296979     0.13000
H3456       H  0.40416959  0.56063478  0.82068857     0.14900
C3457       C  0.44842404  0.45494004  0.74405410    -0.05100
C3458       C  0.43057021  0.46352542  0.73603099    -0.05000
C3459       C  0.41983424  0.45373716  0.72028625    -0.23200
C3460       C  0.42672329  0.43516073  0.71230860     0.19000
C3461       C  0.44502841  0.42677903  0.71974894     0.16200
C3462       C  0.45579813  0.43677447  0.73541276    -0.18200
C3463       C  0.45200115  0.40821244  0.71180165    -0.20100
C3464       C  0.44072346  0.39780108  0.69693247    -0.12600
C3465       C  0.42234697  0.40578444  0.68983736     0.04100
C3466       C  0.41545510  0.42457421  0.69735452    -0.24800
H3467       H  0.42459354  0.47758662  0.74224645     0.09100
H3468       H  0.40592342  0.46046677  0.71466960     0.12700
H3469       H  0.46957893  0.42998933  0.74130368     0.12700
H3470       H  0.46600563  0.40159764  0.71730761     0.12400
H3471       H  0.44612967  0.38331159  0.69115514     0.13000
H3472       H  0.40124256  0.43069330  0.69177719     0.14900
C3473       C  0.49867303  0.31189033  0.93541611    -0.05100
C3474       C  0.49804377  0.31175681  0.91389828    -0.05000
C3475       C  0.51383815  0.32004474  0.90264805    -0.23200
C3476       C  0.53069414  0.32842902  0.91270225     0.19000
C3477       C  0.53157857  0.32857537  0.93434963     0.16200
C3478       C  0.51545970  0.32046961  0.94559007    -0.18200
C3479       C  0.54853658  0.33692647  0.94434492    -0.20100
C3480       C  0.56415971  0.34559601  0.93302925    -0.12600
C3481       C  0.56313688  0.34595428  0.91155966     0.04100
C3482       C  0.54653072  0.33695978  0.90146464    -0.24800
H3483       H  0.48518656  0.30536874  0.90571794     0.09100
H3484       H  0.51286321  0.31989037  0.88608483     0.12700
H3485       H  0.51611507  0.32053129  0.96217348     0.12700
H3486       H  0.54954739  0.33708897  0.96090192     0.12400
H3487       H  0.57682875  0.35256010  0.94102789     0.13000
H3488       H  0.54571444  0.33721883  0.88488353     0.14900
C3489       C  0.45380897  0.31071614  0.99506851    -0.05100
C3490       C  0.46737097  0.32202149  0.00735013    -0.05000
C3491       C  0.46068799  0.33234271  0.02474438    -0.23200
C3492       C  0.44024152  0.33183998  0.02998332     0.19000
C3493       C  0.42651321  0.32024170  0.01792844     0.16200
C3494       C  0.43343063  0.30953224  0.00075000    -0.18200
C3495       C  0.40598922  0.32000915  0.02292940    -0.20100
C3496       C  0.39908684  0.33136512  0.03954559    -0.12600
C3497       C  0.41259454  0.34293216  0.05154351     0.04100
C3498       C  0.43320458  0.34303905  0.04680881    -0.24800
H3499       H  0.48315640  0.32308182  0.00335729     0.09100
H3500       H  0.47143278  0.34108623  0.03383309     0.12700
H3501       H  0.42277457  0.30101417  0.99132634     0.12700
H3502       H  0.39524892  0.31124962  0.01385144     0.12400
H3503       H  0.38316341  0.33114079  0.04311149     0.13000
H3504       H  0.44361399  0.35203722  0.05606722     0.14900
C3505       C  0.44347363  0.26241725  0.93749262    -0.05100
C3506       C  0.44567704  0.25960750  0.91628227    -0.05000
C3507       C  0.43547538  0.24397514  0.90603895    -0.23200
C3508       C  0.42294273  0.23067679  0.91678622     0.19000
C3509       C  0.42045184  0.23323481  0.93811827     0.16200
C3510       C  0.43064986  0.24922412  0.94835796    -0.18200
C3511       C  0.40797574  0.21960156  0.94876288    -0.20100
C3512       C  0.39821474  0.20359221  0.93835003    -0.12600
C3513       C  0.40072533  0.20112139  0.91718824     0.04100
C3514       C  0.41302782  0.21473264  0.90649540    -0.24800
H3515       H  0.45531366  0.26958362  0.90746716     0.09100
H3516       H  0.43750808  0.24220884  0.88969911     0.12700
H3517       H  0.42890568  0.25114372  0.96472125     0.12700
H3518       H  0.40588565  0.22123590  0.96510268     0.12400
H3519       H  0.38875624  0.19308701  0.94674942     0.13000
H3520       H  0.41502114  0.21269150  0.89016625     0.14900
C3521       C  0.29514240  0.25609193  0.80704208    -0.05100
C3522       C  0.28368506  0.24710862  0.82268872    -0.05000
C3523       C  0.29037707  0.22949181  0.83266385    -0.23200
C3524       C  0.30875323  0.22055558  0.82732746     0.19000
C3525       C  0.32003005  0.22890297  0.81107054     0.16200
C3526       C  0.31305703  0.24647330  0.80089827    -0.18200
C3527       C  0.33852531  0.22003574  0.80585189    -0.20100
C3528       C  0.34622716  0.20373004  0.81727156    -0.12600
C3529       C  0.33544584  0.19589155  0.83386509     0.04100
C3530       C  0.31644492  0.20394578  0.83850275    -0.24800
H3531       H  0.26970119  0.25396761  0.82761686     0.09100
H3532       H  0.28146572  0.22322308  0.84497376     0.12700
H3533       H  0.32203434  0.25311016  0.78882755     0.12700
H3534       H  0.34733353  0.22613370  0.79338546     0.12400
H3535       H  0.36088152  0.19755267  0.81354282     0.13000
H3536       H  0.30815705  0.19785599  0.85135363     0.14900
C3537       C  0.30486469  0.31279194  0.75771180    -0.05100
C3538       C  0.30171056  0.33356018  0.75309706    -0.05000
C3539       C  0.31178148  0.34291010  0.73697210    -0.23200
C3540       C  0.32515386  0.33169635  0.72496214     0.19000
C3541       C  0.32844692  0.31077448  0.72925248     0.16200
C3542       C  0.31837156  0.30147049  0.74567705    -0.18200
C3543       C  0.34172229  0.29956739  0.71697590    -0.20100
C3544       C  0.35162461  0.30902707  0.70068967    -0.12600
C3545       C  0.34851471  0.32983302  0.69653993     0.04100
C3546       C  0.33526374  0.34109214  0.70871761    -0.24800
H3547       H  0.29148850  0.34273960  0.76205772     0.09100
H3548       H  0.30907127  0.35894075  0.73387786     0.12700
H3549       H  0.32091919  0.28544324  0.74894377     0.12700
H3550       H  0.34443418  0.28351934  0.71996020     0.12400
H3551       H  0.36184522  0.30018555  0.69138795     0.13000
H3552       H  0.33284465  0.35714966  0.70545917     0.14900
C3553       C  0.25202906  0.31716259  0.80984290    -0.05100
C3554       C  0.24702249  0.33686932  0.80289046    -0.05000
C3555       C  0.23145718  0.34788827  0.81192596    -0.23200
C3556       C  0.22053940  0.33942107  0.82807208     0.19000
C3557       C  0.22543108  0.31966816  0.83530405     0.16200
C3558       C  0.24115673  0.30870572  0.82619553    -0.18200
C3559       C  0.21439490  0.31117196  0.85142902    -0.20100
C3560       C  0.19854183  0.32208086  0.86014931    -0.12600
C3561       C  0.19364384  0.34163845  0.85296036     0.04100
C3562       C  0.20471740  0.35031492  0.83701490    -0.24800
H3563       H  0.25512022  0.34383350  0.79039173     0.09100
H3564       H  0.22790120  0.36300743  0.80621390     0.12700
H3565       H  0.24480375  0.29355904  0.83178437     0.12700
H3566       H  0.21793396  0.29606901  0.85718741     0.12400
H3567       H  0.19004831  0.31530180  0.87248435     0.13000
H3568       H  0.20083345  0.36544007  0.83150561     0.14900
C3569       C  0.78969234  0.20684214  0.04601556    -0.05100
C3570       C  0.78443096  0.20699846  0.06675281    -0.05000
C3571       C  0.79551589  0.19545066  0.08091686    -0.23200
C3572       C  0.81181183  0.18352366  0.07439226     0.19000
C3573       C  0.81647190  0.18265907  0.05332954     0.16200
C3574       C  0.80543158  0.19434218  0.03935888    -0.18200
C3575       C  0.83256627  0.17069350  0.04660130    -0.20100
C3576       C  0.84452788  0.16028302  0.06071454    -0.12600
C3577       C  0.84060342  0.16177699  0.08170285     0.04100
C3578       C  0.82396492  0.17299429  0.08852181    -0.24800
H3579       H  0.77239280  0.21674215  0.07209555     0.09100
H3580       H  0.79169796  0.19625356  0.09697713     0.12700
H3581       H  0.80942679  0.19416057  0.02330292     0.12700
H3582       H  0.83619691  0.16979497  0.03049648     0.12400
H3583       H  0.85727065  0.15150843  0.05535954     0.13000
H3584       H  0.82098303  0.17404054  0.10476987     0.14900
C3585       C  0.66789544  0.17255177  0.91104807    -0.05100
C3586       C  0.66494418  0.19357835  0.90793894    -0.05000
C3587       C  0.67447998  0.20786068  0.92060130    -0.23200
C3588       C  0.68656146  0.20131048  0.93700521     0.19000
C3589       C  0.68857862  0.18020065  0.94111760     0.16200
C3590       C  0.67956910  0.16592174  0.92783075    -0.18200
C3591       C  0.70006893  0.17379876  0.95808908    -0.20100
C3592       C  0.71037915  0.18815892  0.97018941    -0.12600
C3593       C  0.70955588  0.20896919  0.96518383     0.04100
C3594       C  0.69721711  0.21550910  0.94893325    -0.24800
H3595       H  0.65579673  0.19890449  0.89519755     0.09100
H3596       H  0.67262928  0.22399831  0.91740427     0.12700
H3597       H  0.68185873  0.14970689  0.93029011     0.12700
H3598       H  0.70155081  0.15769844  0.96162773     0.12400
H3599       H  0.71994061  0.18292950  0.98265362     0.13000
H3600       H  0.69648570  0.23163676  0.94516619     0.14900
C3601       C  0.68452156  0.33903704  0.10047300    -0.05100
C3602       C  0.70472056  0.34497066  0.09811770    -0.05000
C3603       C  0.71759555  0.33352753  0.08600240    -0.23200
C3604       C  0.71053270  0.31579122  0.07627174     0.19000
C3605       C  0.69053815  0.30898393  0.07939646     0.16200
C3606       C  0.67756533  0.32072366  0.09153006    -0.18200
C3607       C  0.68379391  0.29097071  0.06974704    -0.20100
C3608       C  0.69646830  0.28039157  0.05637713    -0.12600
C3609       C  0.71596307  0.28779493  0.05243252     0.04100
C3610       C  0.72302898  0.30517994  0.06291672    -0.24800
H3611       H  0.71030598  0.35892310  0.10514647     0.09100
H3612       H  0.73293983  0.33881094  0.08385870     0.12700
H3613       H  0.66198246  0.31608495  0.09345067     0.12700
H3614       H  0.66858443  0.28539727  0.07209643     0.12400
H3615       H  0.69075622  0.26695850  0.04849940     0.13000
H3616       H  0.73816859  0.31084446  0.06023665     0.14900
C3617       C  0.72294423  0.31548120  0.95334746    -0.05100
C3618       C  0.71460545  0.33169865  0.96463766    -0.05000
C3619       C  0.69906540  0.34365843  0.95639424    -0.23200
C3620       C  0.69155939  0.33973186  0.93663709     0.19000
C3621       C  0.70005848  0.32375103  0.92496948     0.16200
C3622       C  0.71563355  0.31175668  0.93337757    -0.18200
C3623       C  0.69262904  0.31983172  0.90516401    -0.20100
C3624       C  0.67695159  0.33160601  0.89698829    -0.12600
C3625       C  0.66834974  0.34737831  0.90849380     0.04100
C3626       C  0.67565327  0.35140302  0.92835851    -0.24800
H3627       H  0.71965329  0.33478025  0.98015857     0.09100
H3628       H  0.69273893  0.35580654  0.96558879     0.12700
H3629       H  0.72172416  0.29922978  0.92452184     0.12700
H3630       H  0.69893130  0.30765066  0.89600200     0.12400
H3631       H  0.67143078  0.32839119  0.88165347     0.13000
H3632       H  0.66899432  0.36361481  0.93723350     0.14900
C3633       C  0.85444167  0.33896337  0.08572990    -0.05100
C3634       C  0.83627179  0.34931220  0.08205041    -0.05000
C3635       C  0.82361833  0.34344933  0.06587442    -0.23200
C3636       C  0.82904442  0.32718617  0.05309620     0.19000
C3637       C  0.84756583  0.31696838  0.05646111     0.16200
C3638       C  0.86009561  0.32281742  0.07289904    -0.18200
C3639       C  0.85295062  0.30073226  0.04366112    -0.20100
C3640       C  0.83953889  0.29380483  0.02852683    -0.12600
C3641       C  0.82055683  0.30307451  0.02585471     0.04100
C3642       C  0.81581206  0.32036415  0.03764917    -0.24800
H3643       H  0.83184589  0.36184848  0.09186415     0.09100
H3644       H  0.80948535  0.35143819  0.06353197     0.12700
H3645       H  0.87414925  0.31484004  0.07581929     0.12700
H3646       H  0.86717010  0.29286699  0.04588339     0.12400
H3647       H  0.84361130  0.28047835  0.01964598     0.13000
H3648       H  0.80122404  0.32763585  0.03585131     0.14900
C3649       C  0.77599940  0.05790572  0.19517943    -0.05100
C3650       C  0.77516913  0.07925471  0.19734585    -0.05000
C3651       C  0.78929230  0.09176357  0.18758323    -0.23200
C3652       C  0.80481382  0.08305661  0.17601858     0.19000
C3653       C  0.80545894  0.06161111  0.17343675     0.16200
C3654       C  0.79084705  0.04927606  0.18264528    -0.18200
C3655       C  0.82117511  0.05272979  0.16235951    -0.20100
C3656       C  0.83636931  0.06493745  0.15420043    -0.12600
C3657       C  0.83604345  0.08620769  0.15686700     0.04100
C3658       C  0.82004654  0.09527768  0.16750711    -0.24800
H3659       H  0.76390216  0.08621745  0.20698153     0.09100
H3660       H  0.78851545  0.10817117  0.18968856     0.12700
H3661       H  0.79185513  0.03280377  0.18110442     0.12700
H3662       H  0.82188527  0.03631317  0.16027708     0.12400
H3663       H  0.84846307  0.05780833  0.14578452     0.13000
H3664       H  0.81973163  0.11173574  0.16943756     0.14900
C3665       C  0.64709456  0.07256487  0.33695094    -0.05100
C3666       C  0.64558645  0.05118534  0.33647597    -0.05000
C3667       C  0.65474716  0.04010932  0.32084564    -0.23200
C3668       C  0.66545482  0.05034337  0.30551881     0.19000
C3669       C  0.66664270  0.07192014  0.30575024     0.16200
C3670       C  0.65744961  0.08285909  0.32144812    -0.18200
C3671       C  0.67756775  0.08218476  0.29067003    -0.20100
C3672       C  0.68825498  0.07112423  0.27614408    -0.12600
C3673       C  0.68780560  0.04968269  0.27624814     0.04100
C3674       C  0.67576778  0.03936955  0.29051787    -0.24800
H3675       H  0.63742871  0.04313379  0.34827327     0.09100
H3676       H  0.65371572  0.02357697  0.32090474     0.12700
H3677       H  0.65855301  0.09940200  0.32185179     0.12700
H3678       H  0.67852044  0.09872171  0.29062126     0.12400
H3679       H  0.69752437  0.07930523  0.26531841     0.13000
H3680       H  0.67562089  0.02279771  0.29092130     0.14900
C3681       C  0.65969897  0.90683298  0.16139713    -0.05100
C3682       C  0.65744554  0.90529644  0.18265452    -0.05000
C3683       C  0.66549275  0.92033895  0.19558767    -0.23200
C3684       C  0.67582638  0.93714087  0.18738978     0.19000
C3685       C  0.67797220  0.93886052  0.16596753     0.16200
C3686       C  0.66992516  0.92367614  0.15312916    -0.18200
C3687       C  0.68849913  0.95551153  0.15777911    -0.20100
C3688       C  0.69766808  0.96985455  0.17075338    -0.12600
C3689       C  0.69605039  0.96800696  0.19207472     0.04100
C3690       C  0.68460980  0.95190088  0.20027256    -0.24800
H3691       H  0.64940467  0.89247179  0.18917716     0.09100
H3692       H  0.66374789  0.91877856  0.21197698     0.12700
H3693       H  0.67159388  0.92486246  0.13668267     0.12700
H3694       H  0.69017111  0.95708922  0.14138163     0.12400
H3695       H  0.70644783  0.98212190  0.16414806     0.13000
H3696       H  0.68352116  0.95017067  0.21672319     0.14900
C3697       C  0.83194585  0.09389632  0.33544691    -0.05100
C3698       C  0.81152044  0.09957427  0.33519393    -0.05000
C3699       C  0.79702631  0.08716551  0.32576870    -0.23200
C3700       C  0.80266530  0.06868213  0.31667059     0.19000
C3701       C  0.82303040  0.06233298  0.31754733     0.16200
C3702       C  0.83761699  0.07509943  0.32677969    -0.18200
C3703       C  0.82844476  0.04356029  0.30875137    -0.20100
C3704       C  0.81397602  0.03165093  0.29841275    -0.12600
C3705       C  0.79397713  0.03848081  0.29654182     0.04100
C3706       C  0.78834231  0.05677041  0.30616507    -0.24800
H3707       H  0.80686856  0.11388367  0.34201959     0.09100
H3708       H  0.78144994  0.09215359  0.32536621     0.12700
H3709       H  0.85335602  0.07063260  0.32698597     0.12700
H3710       H  0.84393836  0.03834826  0.30942035     0.12400
H3711       H  0.81861998  0.01762173  0.29103509     0.13000
H3712       H  0.77286997  0.06203140  0.30496390     0.14900
C3713       C  0.09110798  0.91447598  0.41213080    -0.05100
C3714       C  0.09237978  0.91160965  0.43334077    -0.05000
C3715       C  0.07787809  0.92002830  0.44610803    -0.23200
C3716       C  0.06203266  0.93160961  0.43780379     0.19000
C3717       C  0.06070042  0.93468254  0.41642123     0.16200
C3718       C  0.07519841  0.92589020  0.40365174    -0.18200
C3719       C  0.04514715  0.94683038  0.40830346    -0.20100
C3720       C  0.03152003  0.95649378  0.42133585    -0.12600
C3721       C  0.03292117  0.95367401  0.44260446     0.04100
C3722       C  0.04791640  0.94073931  0.45064719    -0.24800
H3723       H  0.10454347  0.90268384  0.43994621     0.09100
H3724       H  0.07915400  0.91764611  0.46247551     0.12700
H3725       H  0.07428152  0.92801038  0.38721791     0.12700
H3726       H  0.04391721  0.94937556  0.39196092     0.12400
H3727       H  0.02018546  0.96653687  0.41484916     0.13000
H3728       H  0.04941175  0.93876375  0.46706740     0.14900
C3729       C  0.44167552  0.80722441  0.49817350    -0.05100
C3730       C  0.42917624  0.79310902  0.50823649    -0.05000
C3731       C  0.41829277  0.79888245  0.52555417    -0.23200
C3732       C  0.41949300  0.81896274  0.53304371     0.19000
C3733       C  0.43226148  0.83320092  0.52328334     0.16200
C3734       C  0.44337555  0.82720648  0.50610129    -0.18200
C3735       C  0.43329782  0.85337985  0.53053304    -0.20100
C3736       C  0.42139682  0.85954969  0.54693173    -0.12600
C3737       C  0.40845879  0.84562426  0.55651594     0.04100
C3738       C  0.40776734  0.82522918  0.54974640    -0.24800
H3739       H  0.42765368  0.77759417  0.50261807     0.09100
H3740       H  0.40864029  0.78773434  0.53285569     0.12700
H3741       H  0.45288077  0.83833261  0.49856171     0.12700
H3742       H  0.44299390  0.86449920  0.52324768     0.12400
H3743       H  0.42202189  0.87531512  0.55199848     0.13000
H3744       H  0.39768044  0.81450161  0.55709105     0.14900
C3745       C  0.30460472  0.95502217  0.49777722    -0.05100
C3746       C  0.32442106  0.96101002  0.50298854    -0.05000
C3747       C  0.33460116  0.95197370  0.51944116    -0.23200
C3748       C  0.32515155  0.93681793  0.53105479     0.19000
C3749       C  0.30498650  0.93116709  0.52645963     0.16200
C3750       C  0.29484542  0.94032031  0.50989803    -0.18200
C3751       C  0.29548441  0.91608368  0.53820444    -0.20100
C3752       C  0.30605866  0.90629195  0.55397061    -0.12600
C3753       C  0.32622923  0.91146096  0.55819691     0.04100
C3754       C  0.33565386  0.92690973  0.54690288    -0.24800
H3755       H  0.33231681  0.97233132  0.49401397     0.09100
H3756       H  0.35000112  0.95657178  0.52283741     0.12700
H3757       H  0.27951172  0.93567742  0.50622837     0.12700
H3758       H  0.28001368  0.91162809  0.53497536     0.12400
H3759       H  0.29866013  0.89440708  0.56266353     0.13000
H3760       H  0.35123304  0.93090061  0.55027599     0.14900
C3761       C  0.30429317  0.00337897  0.44009953    -0.05100
C3762       C  0.32180669  0.01277153  0.44812015    -0.05000
C3763       C  0.33085732  0.02909844  0.43798633    -0.23200
C3764       C  0.32263532  0.03636025  0.41957962     0.19000
C3765       C  0.30515503  0.02698810  0.41117899     0.16200
C3766       C  0.29607670  0.01059402  0.42150233    -0.18200
C3767       C  0.29710665  0.03418339  0.39258039    -0.20100
C3768       C  0.30633372  0.05047593  0.38242214    -0.12600
C3769       C  0.32359236  0.05984542  0.39081022     0.04100
C3770       C  0.33166611  0.05279356  0.40939465    -0.24800
H3771       H  0.32854975  0.00756812  0.46234027     0.09100
H3772       H  0.34429874  0.03605830  0.44456877     0.12700
H3773       H  0.28264626  0.00350086  0.41503448     0.12700
H3774       H  0.28375980  0.02716519  0.38586792     0.12400
H3775       H  0.30007408  0.05577426  0.36801042     0.13000
H3776       H  0.34510399  0.06000581  0.41573544     0.14900
C3777       C  0.19469084  0.92298238  0.39974942    -0.05100
C3778       C  0.20548176  0.93697489  0.38785261    -0.05000
C3779       C  0.22169691  0.94786747  0.39634453    -0.23200
C3780       C  0.22747418  0.94472201  0.41681247     0.19000
C3781       C  0.21656351  0.93071841  0.42892813     0.16200
C3782       C  0.20011539  0.92003643  0.42034662    -0.18200
C3783       C  0.22255310  0.92735498  0.44927517    -0.20100
C3784       C  0.23939289  0.93750414  0.45746511    -0.12600
C3785       C  0.25045542  0.95137429  0.44553490     0.04100
C3786       C  0.24420710  0.95505493  0.42522644    -0.24800
H3787       H  0.20144445  0.93926418  0.37191862     0.09100
H3788       H  0.22990799  0.95850452  0.38682815     0.12700
H3789       H  0.19182732  0.90908153  0.42945138     0.12700
H3790       H  0.21437204  0.91668152  0.45878085     0.12400
H3791       H  0.24378374  0.93442256  0.47316515     0.13000
H3792       H  0.25261483  0.96560274  0.41577540     0.14900
C3793       C  0.66376931  0.93422773  0.35060250    -0.05100
C3794       C  0.67347902  0.95165716  0.35851069    -0.05000
C3795       C  0.68961334  0.96051386  0.34805028    -0.23200
C3796       C  0.69628231  0.95195281  0.32960392     0.19000
C3797       C  0.68683528  0.93406005  0.32189088     0.16200
C3798       C  0.67058489  0.92541903  0.33237068    -0.18200
C3799       C  0.69328760  0.92553669  0.30340887    -0.20100
C3800       C  0.70800017  0.93542412  0.29192805    -0.12600
C3801       C  0.71677548  0.95369199  0.29895224     0.04100
C3802       C  0.71140800  0.96156028  0.31813335    -0.24800
H3803       H  0.66842405  0.95846557  0.37266869     0.09100
H3804       H  0.69665775  0.97420556  0.35420149     0.12700
H3805       H  0.66309582  0.91188830  0.32635552     0.12700
H3806       H  0.68622204  0.91182539  0.29732172     0.12400
H3807       H  0.71161014  0.92953687  0.27690180     0.13000
H3808       H  0.71772283  0.97602860  0.32324791     0.14900
C3809       C  0.54934864  0.85725331  0.40705746    -0.05100
C3810       C  0.54769929  0.83722301  0.39948340    -0.05000
C3811       C  0.53266947  0.82405510  0.40658960    -0.23200
C3812       C  0.51913300  0.83064783  0.42156927     0.19000
C3813       C  0.52062112  0.85085454  0.42920364     0.16200
C3814       C  0.53563062  0.86409932  0.42177584    -0.18200
C3815       C  0.50729615  0.85732538  0.44439441    -0.20100
C3816       C  0.49280092  0.84389192  0.45212526    -0.12600
C3817       C  0.49112918  0.82373648  0.44469200     0.04100
C3818       C  0.50433492  0.81729613  0.42923120    -0.24800
H3819       H  0.55825299  0.83173493  0.38820435     0.09100
H3820       H  0.53181345  0.80862836  0.40057831     0.12700
H3821       H  0.53699793  0.87951955  0.42774407     0.12700
H3822       H  0.50819240  0.87273814  0.45044082     0.12400
H3823       H  0.48280477  0.84936755  0.46391688     0.13000
H3824       H  0.50335033  0.80180274  0.42339358     0.14900
C3825       C  0.55949761  0.94355187  0.34483029    -0.05100
C3826       C  0.54760562  0.95788186  0.35511665    -0.05000
C3827       C  0.53251425  0.96860666  0.34460904    -0.23200
C3828       C  0.52892239  0.96486445  0.32372874     0.19000
C3829       C  0.54125723  0.95081207  0.31318995     0.16200
C3830       C  0.55661506  0.94040381  0.32377291    -0.18200
C3831       C  0.53748262  0.94676181  0.29245194    -0.20100
C3832       C  0.52108061  0.95579191  0.28245318    -0.12600
C3833       C  0.50828143  0.96926901  0.29290483     0.04100
C3834       C  0.51268340  0.97422402  0.31344072    -0.24800
H3835       H  0.54970537  0.96035353  0.37139324     0.09100
H3836       H  0.52324282  0.97931892  0.35294322     0.12700
H3837       H  0.56574951  0.92919921  0.31591109     0.12700
H3838       H  0.54683398  0.93611461  0.28412332     0.12400
H3839       H  0.51817084  0.95186719  0.26658407     0.13000
H3840       H  0.50292050  0.98453704  0.32171419     0.14900
C3841       C  0.45596731  0.96007420  0.24010834    -0.05100
C3842       C  0.46663323  0.94293944  0.23295258    -0.05000
C3843       C  0.45868048  0.93060151  0.21740244    -0.23200
C3844       C  0.43986110  0.93508044  0.20865344     0.19000
C3845       C  0.42908638  0.95243966  0.21538484     0.16200
C3846       C  0.43723337  0.96486976  0.23100536    -0.18200
C3847       C  0.41016912  0.95682103  0.20662461    -0.20100
C3848       C  0.40184823  0.94388632  0.19169708    -0.12600
C3849       C  0.41237448  0.92652340  0.18523213     0.04100
C3850       C  0.43148413  0.92229152  0.19352873    -0.24800
H3851       H  0.48110385  0.93881260  0.23956322     0.09100
H3852       H  0.46714850  0.91738888  0.21241241     0.12700
H3853       H  0.42882099  0.97800883  0.23628275     0.12700
H3854       H  0.40170183  0.97006491  0.21151570     0.12400
H3855       H  0.38709819  0.94727928  0.18528711     0.13000
H3856       H  0.43956710  0.90884514  0.18846363     0.14900
C3857       C  0.44985823  0.01572450  0.29131529    -0.05100
C3858       C  0.45902338  0.02796566  0.30653759    -0.05000
C3859       C  0.44835342  0.04364046  0.31599320    -0.23200
C3860       C  0.42822452  0.04735414  0.31054943     0.19000
C3861       C  0.41877980  0.03531740  0.29517669     0.16200
C3862       C  0.42970177  0.01968217  0.28553554    -0.18200
C3863       C  0.39847114  0.03891323  0.29002543    -0.20100
C3864       C  0.38760235  0.05406890  0.30022819    -0.12600
C3865       C  0.39695833  0.06597421  0.31550272     0.04100
C3866       C  0.41729434  0.06267857  0.32050414    -0.24800
H3867       H  0.47451416  0.02539468  0.31127186     0.09100
H3868       H  0.45579766  0.05271618  0.32774865     0.12700
H3869       H  0.42236990  0.01035935  0.27389836     0.12700
H3870       H  0.39093281  0.02982332  0.27834658     0.12400
H3871       H  0.37184019  0.05640893  0.29638709     0.13000
H3872       H  0.42440098  0.07176142  0.33248181     0.14900
C3873       C  0.41409417  0.69653374  0.41302750    -0.05100
C3874       C  0.41107606  0.69728680  0.43424205    -0.05000
C3875       C  0.41947028  0.71309944  0.44604388    -0.23200
C3876       C  0.43101177  0.72849208  0.43681289     0.19000
C3877       C  0.43471184  0.72748102  0.41556627     0.16200
C3878       C  0.42621844  0.71151779  0.40379865    -0.18200
C3879       C  0.44640606  0.74275259  0.40638727    -0.20100
C3880       C  0.45389410  0.75916343  0.41798768    -0.12600
C3881       C  0.44973408  0.76077693  0.43900229     0.04100
C3882       C  0.43847378  0.74512598  0.44836152    -0.24800
H3883       H  0.40169886  0.68591720  0.44155750     0.09100
H3884       H  0.41655408  0.71353915  0.46231815     0.12700
H3885       H  0.42853349  0.71100714  0.38740812     0.12700
H3886       H  0.44948420  0.74219820  0.39014649     0.12400
H3887       H  0.46249341  0.77092268  0.41032419     0.13000
H3888       H  0.43526272  0.74601108  0.46456654     0.14900
C3889       C  0.19142924  0.84667080  0.32609823    -0.05100
C3890       C  0.20119203  0.85911882  0.31182179    -0.05000
C3891       C  0.21730994  0.85156527  0.30056407    -0.23200
C3892       C  0.22407662  0.83151552  0.30366555     0.19000
C3893       C  0.21396825  0.81867565  0.31763102     0.16200
C3894       C  0.19751623  0.82629233  0.32864196    -0.18200
C3895       C  0.22102475  0.79874952  0.32091672    -0.20100
C3896       C  0.23843269  0.79190852  0.31113451    -0.12600
C3897       C  0.24891212  0.80476464  0.29765822     0.04100
C3898       C  0.24126622  0.82440252  0.29361473    -0.24800
H3899       H  0.19661867  0.87487682  0.30981404     0.09100
H3900       H  0.22487609  0.86159567  0.28991103     0.12700
H3901       H  0.19001879  0.81675939  0.33980160     0.12700
H3902       H  0.21341107  0.78865362  0.33147195     0.12400
H3903       H  0.24384380  0.77663340  0.31433794     0.13000
H3904       H  0.24914371  0.83452764  0.28327629     0.14900
C3905       C  0.30868405  0.75947668  0.29708308    -0.05100
C3906       C  0.32728885  0.75413283  0.28836803    -0.05000
C3907       C  0.33890847  0.73830103  0.29650770    -0.23200
C3908       C  0.33222001  0.72742706  0.31356571     0.19000
C3909       C  0.31349572  0.73247043  0.32244336     0.16200
C3910       C  0.30185012  0.74844861  0.31415910    -0.18200
C3911       C  0.30681483  0.72148014  0.33951417    -0.20100
C3912       C  0.31860076  0.70573341  0.34771264    -0.12600
C3913       C  0.33723897  0.70080701  0.33903101     0.04100
C3914       C  0.34399468  0.71165608  0.32194581    -0.24800
H3915       H  0.33300381  0.76225397  0.27521479     0.09100
H3916       H  0.35318522  0.73461796  0.28948715     0.12700
H3917       H  0.28758068  0.75233895  0.32109182     0.12700
H3918       H  0.29252524  0.72508921  0.34654065     0.12400
H3919       H  0.31327723  0.69743517  0.36093459     0.13000
H3920       H  0.35839889  0.70779501  0.31526862     0.14900
C3921       C  0.30305188  0.81582203  0.24773229    -0.05100
C3922       C  0.29370152  0.83377347  0.24061240    -0.05000
C3923       C  0.30223223  0.84513857  0.22478198    -0.23200
C3924       C  0.32024113  0.83874169  0.21575119     0.19000
C3925       C  0.32968080  0.82063756  0.22267752     0.16200
C3926       C  0.32106871  0.80936282  0.23857923    -0.18200
C3927       C  0.34762731  0.81409769  0.21360552    -0.20100
C3928       C  0.35618191  0.82541830  0.19782051    -0.12600
C3929       C  0.34697834  0.84344604  0.19097823     0.04100
C3930       C  0.32901270  0.85010133  0.19994254    -0.24800
H3931       H  0.27983417  0.83914127  0.24735706     0.09100
H3932       H  0.29477077  0.85894896  0.21963981     0.12700
H3933       H  0.32846156  0.79553525  0.24379373     0.12700
H3934       H  0.35503317  0.80024467  0.21871464     0.12400
H3935       H  0.37004022  0.82018571  0.19093951     0.13000
H3936       H  0.32192778  0.86402610  0.19453599     0.14900
C3937       C  0.41126199  0.10257098  0.07302669    -0.05100
C3938       C  0.41890405  0.11110305  0.05502156    -0.05000
C3939       C  0.43503111  0.10190054  0.04498013    -0.23200
C3940       C  0.44389437  0.08411236  0.05293315     0.19000
C3941       C  0.43642176  0.07554945  0.07120446     0.16200
C3942       C  0.41997638  0.08468483  0.08099754    -0.18200
C3943       C  0.44541798  0.05790197  0.07924635    -0.20100
C3944       C  0.46100696  0.04822626  0.06876528    -0.12600
C3945       C  0.46796078  0.05604241  0.05006357     0.04100
C3946       C  0.45969393  0.07442164  0.04259474    -0.24800
H3947       H  0.41242448  0.12499191  0.04884143     0.09100
H3948       H  0.44057353  0.10869413  0.03100977     0.12700
H3949       H  0.41415262  0.07818389  0.09500349     0.12700
H3950       H  0.44002145  0.05125113  0.09334706     0.12400
H3951       H  0.46704007  0.03412146  0.07490516     0.13000
H3952       H  0.46480746  0.08065886  0.02819093     0.14900
C3953       C  0.55577284  0.05960488  0.96853767    -0.05100
C3954       C  0.55063318  0.08023112  0.96551412    -0.05000
C3955       C  0.56147663  0.09238054  0.95191421    -0.23200
C3956       C  0.57758463  0.08409548  0.94098151     0.19000
C3957       C  0.58355453  0.06368484  0.94464215     0.16200
C3958       C  0.57271778  0.05162969  0.95849476    -0.18200
C3959       C  0.59977662  0.05543978  0.93379162    -0.20100
C3960       C  0.60971271  0.06717658  0.91915203    -0.12600
C3961       C  0.60343653  0.08721772  0.91496490     0.04100
C3962       C  0.58743001  0.09566248  0.92602025    -0.24800
H3963       H  0.53771594  0.08679403  0.97308491     0.09100
H3964       H  0.55684387  0.10806179  0.94945537     0.12700
H3965       H  0.57682556  0.03573468  0.96056326     0.12700
H3966       H  0.60457339  0.03983448  0.93639995     0.12400
H3967       H  0.62204481  0.06050518  0.91071886     0.13000
H3968       H  0.58254365  0.11112804  0.92274171     0.14900
C3969       C  0.55320242  0.97117114  0.04952248    -0.05100
C3970       C  0.54500174  0.96449214  0.06815135    -0.05000
C3971       C  0.55403983  0.94880309  0.07930177    -0.23200
C3972       C  0.57162537  0.93955786  0.07222559     0.19000
C3973       C  0.58085939  0.94693747  0.05426147     0.16200
C3974       C  0.57158104  0.96272048  0.04297917    -0.18200
C3975       C  0.59881265  0.93787894  0.04758486    -0.20100
C3976       C  0.60725886  0.92148855  0.05841045    -0.12600
C3977       C  0.59778212  0.91378434  0.07590369     0.04100
C3978       C  0.57992153  0.92283595  0.08268733    -0.24800
H3979       H  0.53093944  0.97068126  0.07368719     0.09100
H3980       H  0.54693659  0.94351596  0.09318819     0.12700
H3981       H  0.57814067  0.96769528  0.02869945     0.12700
H3982       H  0.60622445  0.94335973  0.03394748     0.12400
H3983       H  0.62113386  0.91468828  0.05309360     0.13000
H3984       H  0.57262020  0.91689481  0.09621366     0.14900
C3985       C  0.41961060  0.91205291  0.08071186    -0.05100
C3986       C  0.44050670  0.91059564  0.08392824    -0.05000
C3987       C  0.45384943  0.91993199  0.07053233    -0.23200
C3988       C  0.44649660  0.93086342  0.05364408     0.19000
C3989       C  0.42550295  0.93174371  0.04966298     0.16200
C3990       C  0.41209860  0.92221092  0.06326837    -0.18200
C3991       C  0.41840496  0.94281396  0.03261813    -0.20100
C3992       C  0.43193089  0.95371079  0.02029969    -0.12600
C3993       C  0.45266205  0.95364310  0.02492818     0.04100
C3994       C  0.45983283  0.94170888  0.04125673    -0.24800
H3995       H  0.44644671  0.90266507  0.09721656     0.09100
H3996       H  0.46990955  0.91906700  0.07369098     0.12700
H3997       H  0.39593988  0.92327710  0.06077063     0.12700
H3998       H  0.40238132  0.94365678  0.02927776     0.12400
H3999       H  0.42611469  0.96310059  0.00796013     0.13000
H4000       H  0.47584037  0.94169720  0.04492716     0.14900
C4001       C  0.45211855  0.03855339  0.94734516    -0.05100
C4002       C  0.45215030  0.03597652  0.92604508    -0.05000
C4003       C  0.44084785  0.04913177  0.91350000    -0.23200
C4004       C  0.42932351  0.06487339  0.92218402     0.19000
C4005       C  0.42845319  0.06672915  0.94370685     0.16200
C4006       C  0.43984901  0.05360743  0.95607251    -0.18200
C4007       C  0.41675870  0.08212678  0.95256077    -0.20100
C4008       C  0.40637027  0.09597197  0.94020761    -0.12600
C4009       C  0.40773619  0.09485261  0.91882801     0.04100
C4010       C  0.41904014  0.07908517  0.90983674    -0.24800
H4011       H  0.46174822  0.02459211  0.91910732     0.09100
H4012       H  0.44159705  0.04739743  0.89703617     0.12700
H4013       H  0.43983559  0.05560972  0.97255955     0.12700
H4014       H  0.41582737  0.08360027  0.96904209     0.12400
H4015       H  0.39741240  0.10778670  0.94732140     0.13000
H4016       H  0.41994379  0.07807568  0.89331106     0.14900
C4017       C  0.04269550  0.78860614  0.18965616    -0.05100
C4018       C  0.06175931  0.78070311  0.18499007    -0.05000
C4019       C  0.07560475  0.79253016  0.17407456    -0.23200
C4020       C  0.07041839  0.81227406  0.16750140     0.19000
C4021       C  0.05065082  0.81955928  0.17071624     0.16200
C4022       C  0.03697218  0.80771633  0.18178110    -0.18200
C4023       C  0.04512703  0.83894065  0.16359393    -0.20100
C4024       C  0.05928411  0.85135793  0.15402604    -0.12600
C4025       C  0.07935578  0.84487848  0.15188172     0.04100
C4026       C  0.08476898  0.82512728  0.15841680    -0.24800
H4027       H  0.06639518  0.76597039  0.19089037     0.09100
H4028       H  0.09057910  0.78654859  0.17143431     0.12700
H4029       H  0.02212942  0.81376117  0.18507312     0.12700
H4030       H  0.02995133  0.84462982  0.16571269     0.12400
H4031       H  0.05469717  0.86632869  0.14870366     0.13000
H4032       H  0.10019467  0.81996663  0.15677175     0.14900
C4033       C  0.95182301  0.72001876  0.29877451    -0.05100
C4034       C  0.95934585  0.71365823  0.31790160    -0.05000
C4035       C  0.94859609  0.69955923  0.32961408    -0.23200
C4036       C  0.93033558  0.69137598  0.32221733     0.19000
C4037       C  0.92259290  0.69781179  0.30305482     0.16200
C4038       C  0.93319864  0.71226847  0.29166103    -0.18200
C4039       C  0.90462869  0.68928537  0.29531369    -0.20100
C4040       C  0.89443661  0.67441064  0.30645081    -0.12600
C4041       C  0.90186928  0.66819652  0.32560030     0.04100
C4042       C  0.91979877  0.67667476  0.33347398    -0.24800
H4043       H  0.97371307  0.71929265  0.32363818     0.09100
H4044       H  0.95476601  0.69473587  0.34424099     0.12700
H4045       H  0.92729441  0.71681492  0.27682065     0.12700
H4046       H  0.89858026  0.69397723  0.28058908     0.12400
H4047       H  0.88062523  0.66785179  0.30027796     0.13000
H4048       H  0.92553081  0.67167505  0.34823417     0.14900
C4049       C  0.96264579  0.70593826  0.19513825    -0.05100
C4050       C  0.96777509  0.70343628  0.17451604    -0.05000
C4051       C  0.95471171  0.69290916  0.16111473    -0.23200
C4052       C  0.93646976  0.68467971  0.16825297     0.19000
C4053       C  0.93183943  0.68626712  0.18924642     0.16200
C4054       C  0.94493237  0.69680237  0.20247057    -0.18200
C4055       C  0.91386348  0.67787296  0.19662717    -0.20100
C4056       C  0.90024543  0.66841813  0.18322879    -0.12600
C4057       C  0.90423948  0.66742702  0.16221105     0.04100
C4058       C  0.92255038  0.67531270  0.15480345    -0.24800
H4059       H  0.98130105  0.71049080  0.16858009     0.09100
H4060       H  0.95858286  0.69171118  0.14509478     0.12700
H4061       H  0.94097259  0.69854076  0.21844417     0.12700
H4062       H  0.91022245  0.67884237  0.21272528     0.12400
H4063       H  0.88639705  0.66206624  0.18920265     0.13000
H4064       H  0.92575510  0.67436667  0.13859767     0.14900
C4065       C  0.08793460  0.83471548  0.34209140    -0.05100
C4066       C  0.08879813  0.81339432  0.34411096    -0.05000
C4067       C  0.07421372  0.80103064  0.33463407    -0.23200
C4068       C  0.05874364  0.80987123  0.32281535     0.19000
C4069       C  0.05752691  0.83138761  0.32119793     0.16200
C4070       C  0.07199833  0.84367282  0.33107708    -0.18200
C4071       C  0.04242294  0.84022426  0.30894995    -0.20100
C4072       C  0.02931423  0.82786151  0.29748514    -0.12600
C4073       C  0.03074602  0.80649396  0.29854139     0.04100
C4074       C  0.04508542  0.79757503  0.31177781    -0.24800
H4075       H  0.10100831  0.80636604  0.35268015     0.09100
H4076       H  0.07538062  0.78457380  0.33602789     0.12700
H4077       H  0.07140913  0.86016204  0.32953835     0.12700
H4078       H  0.04126592  0.85668300  0.30760015     0.12400
H4079       H  0.01835661  0.83499639  0.28739363     0.13000
H4080       H  0.04648372  0.78107749  0.31246764     0.14900
C4081       C  0.10464612  0.68282289  0.32210386    -0.05100
C4082       C  0.10612254  0.70422419  0.32252729    -0.05000
C4083       C  0.09470370  0.71605875  0.30896993    -0.23200
C4084       C  0.08173176  0.70664227  0.29468402     0.19000
C4085       C  0.08099984  0.68508666  0.29331496     0.16200
C4086       C  0.09251864  0.67328782  0.30705730    -0.18200
C4087       C  0.06805963  0.67577990  0.27884840    -0.20100
C4088       C  0.05510350  0.68769282  0.26670494    -0.12600
C4089       C  0.05492549  0.70900271  0.26895605     0.04100
C4090       C  0.06870634  0.71840943  0.28250581    -0.24800
H4091       H  0.11562390  0.71174881  0.33385554     0.09100
H4092       H  0.09555780  0.73256875  0.31006749     0.12700
H4093       H  0.09148131  0.65675140  0.30663090     0.12700
H4094       H  0.06736170  0.65928275  0.27753251     0.12400
H4095       H  0.04435562  0.68021902  0.25655228     0.13000
H4096       H  0.06848783  0.73489298  0.28433967     0.14900
C4097       C  0.78854342  0.72876774  0.43350727    -0.05100
C4098       C  0.80923958  0.73336365  0.43322117    -0.05000
C4099       C  0.82257736  0.72086556  0.42236467    -0.23200
C4100       C  0.81535421  0.70362872  0.41165974     0.19000
C4101       C  0.79433988  0.69993829  0.41057704     0.16200
C4102       C  0.78111864  0.71256872  0.42140151    -0.18200
C4103       C  0.78695564  0.68289774  0.39979354    -0.20100
C4104       C  0.80029274  0.66892809  0.39118234    -0.12600
C4105       C  0.82122497  0.67170595  0.39322206     0.04100
C4106       C  0.82871673  0.68945333  0.40292977    -0.24800
H4107       H  0.81527495  0.74561847  0.44264707     0.09100
H4108       H  0.83861491  0.72405975  0.42322297     0.12700
H4109       H  0.76514128  0.70893121  0.42160070     0.12700
H4110       H  0.77087844  0.67999803  0.39861741     0.12400
H4111       H  0.79430180  0.65555835  0.38339431     0.13000
H4112       H  0.84487862  0.69175983  0.40433037     0.14900
C4113       C  0.70837749  0.81006849  0.45141210    -0.05100
C4114       C  0.71349706  0.83077673  0.45364334    -0.05000
C4115       C  0.70093517  0.84593309  0.44542587    -0.23200
C4116       C  0.68332146  0.84050883  0.43453579     0.19000
C4117       C  0.67861485  0.81961001  0.43154322     0.16200
C4118       C  0.69099166  0.80458072  0.44024936    -0.18200
C4119       C  0.66148697  0.81404863  0.42007479    -0.20100
C4120       C  0.64897950  0.82904362  0.41175681    -0.12600
C4121       C  0.65299331  0.84985898  0.41526638     0.04100
C4122       C  0.67026812  0.85552869  0.42667190    -0.24800
H4123       H  0.72671168  0.83522178  0.46249955     0.09100
H4124       H  0.70485505  0.86185888  0.44778828     0.12700
H4125       H  0.68700421  0.78856654  0.43856546     0.12700
H4126       H  0.65780694  0.79810028  0.41746477     0.12400
H4127       H  0.63597156  0.82441188  0.40267965     0.13000
H4128       H  0.67353981  0.87157867  0.42926386     0.14900
C4129       C  0.65424803  0.83625714  0.58405717    -0.05100
C4130       C  0.64362978  0.82783211  0.56739205    -0.05000
C4131       C  0.65191483  0.81185519  0.55610975    -0.23200
C4132       C  0.67097460  0.80410829  0.56136221     0.19000
C4133       C  0.68142753  0.81200974  0.57864743     0.16200
C4134       C  0.67299827  0.82810829  0.58989671    -0.18200
C4135       C  0.70042123  0.80414745  0.58391458    -0.20100
C4136       C  0.70959700  0.78965049  0.57136746    -0.12600
C4137       C  0.69991385  0.78272284  0.55335677     0.04100
C4138       C  0.68017506  0.78936777  0.54899076    -0.24800
H4139       H  0.62903290  0.83388648  0.56295982     0.09100
H4140       H  0.64363760  0.80589210  0.54300306     0.12700
H4141       H  0.68106409  0.83454151  0.60293044     0.12700
H4142       H  0.70854876  0.80983798  0.59723903     0.12400
H4143       H  0.72476674  0.78474889  0.57518818     0.13000
H4144       H  0.67244561  0.78407590  0.53525908     0.14900
C4145       C  0.65653865  0.65884095  0.41035458    -0.05100
C4146       C  0.67711711  0.65408956  0.41095691    -0.05000
C4147       C  0.68988363  0.66357674  0.42510556    -0.23200
C4148       C  0.68223976  0.67813369  0.43868342     0.19000
C4149       C  0.66148675  0.68308152  0.43820980     0.16200
C4150       C  0.64863686  0.67319177  0.42408781    -0.18200
C4151       C  0.65416700  0.69812962  0.45153745    -0.20100
C4152       C  0.66746845  0.70875419  0.46456668    -0.12600
C4153       C  0.68817175  0.70412089  0.46476362     0.04100
C4154       C  0.69526047  0.68832468  0.45219025    -0.24800
H4155       H  0.68323369  0.64292298  0.40047098     0.09100
H4156       H  0.70577696  0.65972759  0.42525293     0.12700
H4157       H  0.63267513  0.67675141  0.42355017     0.12700
H4158       H  0.63831382  0.70212979  0.45140740     0.12400
H4159       H  0.66166960  0.72093612  0.47405752     0.13000
H4160       H  0.71121300  0.68470573  0.45197491     0.14900
C4161       C  0.78206736  0.69830706  0.53628947    -0.05100
C4162       C  0.78424832  0.67798193  0.52970767    -0.05000
C4163       C  0.79890402  0.66539688  0.53860374    -0.23200
C4164       C  0.81186700  0.67310900  0.55388478     0.19000
C4165       C  0.80956269  0.69345964  0.56078374     0.16200
C4166       C  0.79449416  0.70575644  0.55220922    -0.18200
C4167       C  0.82274868  0.70140905  0.57573617    -0.20100
C4168       C  0.83822276  0.68933223  0.58369963    -0.12600
C4169       C  0.84053706  0.66915435  0.57696060     0.04100
C4170       C  0.82729375  0.66098659  0.56218769    -0.24800
H4171       H  0.77490292  0.67195353  0.51739658     0.09100
H4172       H  0.80045892  0.64983501  0.53315512     0.12700
H4173       H  0.79316450  0.72149128  0.55724884     0.12700
H4174       H  0.82117289  0.71697935  0.58115705     0.12400
H4175       H  0.84825153  0.69557756  0.59533906     0.13000
H4176       H  0.82908618  0.64528262  0.55720989     0.14900
C4177       C  0.20321445  0.05735243  0.77442329    -0.05100
C4178       C  0.21200125  0.07681262  0.77605408    -0.05000
C4179       C  0.20395157  0.09133263  0.78937944    -0.23200
C4180       C  0.18711650  0.08641883  0.80126442     0.19000
C4181       C  0.17741019  0.06730004  0.79852837     0.16200
C4182       C  0.18553347  0.05291875  0.78509650    -0.18200
C4183       C  0.16048718  0.06237037  0.81020224    -0.20100
C4184       C  0.15355432  0.07602726  0.82490446    -0.12600
C4185       C  0.16362374  0.09461877  0.82837980     0.04100
C4186       C  0.18035664  0.09983506  0.81646067    -0.24800
H4187       H  0.22598385  0.08018384  0.76829830     0.09100
H4188       H  0.21149159  0.10595496  0.79117948     0.12700
H4189       H  0.17907126  0.03768398  0.78416165     0.12700
H4190       H  0.15286754  0.04780858  0.80824198     0.12400
H4191       H  0.14058182  0.07191253  0.83398026     0.13000
H4192       H  0.18823418  0.11413098  0.81928149     0.14900
C4193       C  0.16597104  0.90936042  0.65917907    -0.05100
C4194       C  0.18616259  0.90362471  0.66234041    -0.05000
C4195       C  0.19932646  0.91604978  0.67350611    -0.23200
C4196       C  0.19270345  0.93474107  0.68134585     0.19000
C4197       C  0.17266022  0.94121615  0.67773307     0.16200
C4198       C  0.15927350  0.92833086  0.66679523    -0.18200
C4199       C  0.16647390  0.96032165  0.68534075    -0.20100
C4200       C  0.17987394  0.97250573  0.69693751    -0.12600
C4201       C  0.19949344  0.96557241  0.70124635     0.04100
C4202       C  0.20583855  0.94685739  0.69305039    -0.24800
H4203       H  0.19169382  0.88929692  0.65628370     0.09100
H4204       H  0.21471182  0.91100737  0.67604213     0.12700
H4205       H  0.14374934  0.93292787  0.66425683     0.12700
H4206       H  0.15121933  0.96565472  0.68263169     0.12400
H4207       H  0.17467304  0.98684782  0.70324436     0.13000
H4208       H  0.22104027  0.94149572  0.69616569     0.14900
C4209       C  0.28500898  0.04393073  0.70216394    -0.05100
C4210       C  0.28068984  0.04368864  0.68111141    -0.05000
C4211       C  0.29311615  0.05425395  0.66754327    -0.23200
C4212       C  0.30973272  0.06549971  0.67495536     0.19000
C4213       C  0.31342602  0.06669124  0.69627215     0.16200
C4214       C  0.30119802  0.05571644  0.70968198    -0.18200
C4215       C  0.32950408  0.07853744  0.70382048    -0.20100
C4216       C  0.34213438  0.08877781  0.69032556    -0.12600
C4217       C  0.33926438  0.08685378  0.66907201     0.04100
C4218       C  0.32290653  0.07530085  0.66146362    -0.24800
H4219       H  0.26825507  0.03463341  0.67510947     0.09100
H4220       H  0.28993376  0.05337170  0.65126871     0.12700
H4221       H  0.30440809  0.05611936  0.72599263     0.12700
H4222       H  0.33237496  0.07978657  0.72013312     0.12400
H4223       H  0.35448912  0.09788214  0.69643617     0.13000
H4224       H  0.32058325  0.07386404  0.64507605     0.14900
C4225       C  0.32290789  0.90320794  0.66475617    -0.05100
C4226       C  0.30197025  0.90045680  0.66570189    -0.05000
C4227       C  0.29109115  0.90891973  0.68176622    -0.23200
C4228       C  0.30100597  0.92046822  0.69695766     0.19000
C4229       C  0.32215237  0.92313129  0.69628060     0.16200
C4230       C  0.33303404  0.91421671  0.68027543    -0.18200
C4231       C  0.33185727  0.93529572  0.71117016    -0.20100
C4232       C  0.32053302  0.94578648  0.72578631    -0.12600
C4233       C  0.29944707  0.94365012  0.72614871     0.04100
C4234       C  0.28993056  0.93025928  0.71218359    -0.24800
H4235       H  0.29409440  0.89174448  0.65396731     0.09100
H4236       H  0.27487435  0.90680124  0.68207718     0.12700
H4237       H  0.34926418  0.91617177  0.67956770     0.12700
H4238       H  0.34806852  0.93745204  0.71091658     0.12400
H4239       H  0.32815135  0.95608412  0.73633854     0.13000
H4240       H  0.27363217  0.92870907  0.71207492     0.14900
C4241       C  0.29642709  0.03127698  0.81001191    -0.05100
C4242       C  0.28784851  0.03745025  0.82864691    -0.05000
C4243       C  0.29664516  0.05303815  0.84030885    -0.23200
C4244       C  0.31420134  0.06272875  0.83357725     0.19000
C4245       C  0.32369096  0.05579259  0.81556715     0.16200
C4246       C  0.31484475  0.03998159  0.80400104    -0.18200
C4247       C  0.34142050  0.06537462  0.80897757    -0.20100
C4248       C  0.34945553  0.08189869  0.81992458    -0.12600
C4249       C  0.33979518  0.08913059  0.83746579     0.04100
C4250       C  0.32221665  0.07948942  0.84431634    -0.24800
H4251       H  0.27370527  0.03097621  0.83372502     0.09100
H4252       H  0.28931731  0.05799601  0.85419937     0.12700
H4253       H  0.32162498  0.03541701  0.78968704     0.12700
H4254       H  0.34895016  0.06021865  0.79528024     0.12400
H4255       H  0.36318838  0.08913359  0.81471314     0.13000
H4256       H  0.31493551  0.08501505  0.85803299     0.14900
C4257       C  0.09390842  0.41511667  0.07283253    -0.05100
C4258       C  0.10086772  0.42084794  0.05350499    -0.05000
C4259       C  0.09259945  0.43778565  0.04354751    -0.23200
C4260       C  0.07718602  0.44908493  0.05279069     0.19000
C4261       C  0.07026712  0.44346525  0.07237437     0.16200
C4262       C  0.07876732  0.42654226  0.08232495    -0.18200
C4263       C  0.05470766  0.45462519  0.08146636    -0.20100
C4264       C  0.04529563  0.47051687  0.07078116    -0.12600
C4265       C  0.05146446  0.47568184  0.05092369     0.04100
C4266       C  0.06801448  0.46536131  0.04239766    -0.24800
H4267       H  0.11284403  0.41232686  0.04628598     0.09100
H4268       H  0.09810351  0.44192546  0.02855889     0.12700
H4269       H  0.07365641  0.42217833  0.09741064     0.12700
H4270       H  0.04929218  0.45055312  0.09650807     0.12400
H4271       H  0.03253073  0.47806593  0.07767389     0.13000
H4272       H  0.07294657  0.46905269  0.02707688     0.14900
C4273       C  0.09194089  0.58858553  0.90761811    -0.05100
C4274       C  0.09438814  0.56734340  0.90621271    -0.05000
C4275       C  0.08599844  0.55445706  0.92090230    -0.23200
C4276       C  0.07483786  0.56265625  0.93707253     0.19000
C4277       C  0.07256614  0.58408844  0.93872017     0.16200
C4278       C  0.08131704  0.59692720  0.92408638    -0.18200
C4279       C  0.06102190  0.59226879  0.95457966    -0.20100
C4280       C  0.05096890  0.57932568  0.96806676    -0.12600
C4281       C  0.05263907  0.55799638  0.96621492     0.04100
C4282       C  0.06517263  0.54976922  0.95107209    -0.24800
H4283       H  0.10273141  0.56077935  0.89366114     0.09100
H4284       H  0.08788852  0.53808125  0.91938888     0.12700
H4285       H  0.07950178  0.61335863  0.92516606     0.12700
H4286       H  0.05915666  0.60864769  0.95609086     0.12400
H4287       H  0.04137044  0.58599465  0.97959221     0.13000
H4288       H  0.06634202  0.53333246  0.94931893     0.14900
C4289       C  0.90796065  0.59152325  0.08795247    -0.05100
C4290       C  0.91175142  0.57203808  0.09599964    -0.05000
C4291       C  0.92741176  0.56010752  0.08828879    -0.23200
C4292       C  0.93936257  0.56746850  0.07228877     0.19000
C4293       C  0.93565815  0.58719993  0.06427309     0.16200
C4294       C  0.92004735  0.59914376  0.07224099    -0.18200
C4295       C  0.94736134  0.59449835  0.04814507    -0.20100
C4296       C  0.96209062  0.58210525  0.03947484    -0.12600
C4297       C  0.96557610  0.56221288  0.04686480     0.04100
C4298       C  0.95446456  0.55519442  0.06369804    -0.24800
H4299       H  0.90259037  0.56613899  0.10829000     0.09100
H4300       H  0.93001428  0.54505417  0.09465312     0.12700
H4301       H  0.91711206  0.61426229  0.06614147     0.12700
H4302       H  0.94474435  0.60958117  0.04184485     0.12400
H4303       H  0.97034600  0.58790853  0.02649690     0.13000
H4304       H  0.95679589  0.53982858  0.06941090     0.14900
C4305       C  0.02408571  0.45185003  0.95017431    -0.05100
C4306       C  0.02054332  0.45173584  0.92897010    -0.05000
C4307       C  0.03355606  0.44099295  0.91599626    -0.23200
C4308       C  0.05029735  0.43047359  0.92414856     0.19000
C4309       C  0.05289332  0.42939258  0.94561439     0.16200
C4310       C  0.03965496  0.43982162  0.95839492    -0.18200
C4311       C  0.06944243  0.41901795  0.95402743    -0.20100
C4312       C  0.08389632  0.41052756  0.94131496    -0.12600
C4313       C  0.08216374  0.41235251  0.91998341     0.04100
C4314       C  0.06502894  0.42189998  0.91138202    -0.24800
H4315       H  0.00874004  0.46113948  0.92237441     0.09100
H4316       H  0.03118707  0.44184725  0.89959189     0.12700
H4317       H  0.04243453  0.43994513  0.97479231     0.12700
H4318       H  0.07152291  0.41798414  0.97046350     0.12400
H4319       H  0.09678697  0.40288754  0.94813974     0.13000
H4320       H  0.06355696  0.42317389  0.89489774     0.14900
C4321       C  0.93105128  0.41010883  0.09353654    -0.05100
C4322       C  0.95179160  0.41351959  0.09664316    -0.05000
C4323       C  0.96259705  0.42587145  0.08328905    -0.23200
C4324       C  0.95301432  0.43443179  0.06614346     0.19000
C4325       C  0.93241764  0.43030074  0.06216243     0.16200
C4326       C  0.92144347  0.41847990  0.07612739    -0.18200
C4327       C  0.92320212  0.43829230  0.04442515    -0.20100
C4328       C  0.93415443  0.45088565  0.03117526    -0.12600
C4329       C  0.95429636  0.45589650  0.03575683     0.04100
C4330       C  0.96369126  0.44730144  0.05307585    -0.24800
H4331       H  0.95956268  0.40685000  0.10966733     0.09100
H4332       H  0.97845856  0.42872454  0.08636960     0.12700
H4333       H  0.90546508  0.41581433  0.07353795     0.12700
H4334       H  0.90748392  0.43506280  0.04098387     0.12400
H4335       H  0.92669020  0.45738023  0.01788761     0.13000
H4336       H  0.97935746  0.45088463  0.05653846     0.14900
C4337       C  0.20250783  0.78430098  0.05343638    -0.05100
C4338       C  0.20822904  0.78780883  0.07392379    -0.05000
C4339       C  0.19770173  0.80182824  0.08585967    -0.23200
C4340       C  0.18150748  0.81275637  0.07737297     0.19000
C4341       C  0.17531759  0.80888617  0.05694343     0.16200
C4342       C  0.18561859  0.79446148  0.04526832    -0.18200
C4343       C  0.15944920  0.82011472  0.04821318    -0.20100
C4344       C  0.15004344  0.83537176  0.05950198    -0.12600
C4345       C  0.15622360  0.83934938  0.07967782     0.04100
C4346       C  0.17176140  0.82791278  0.08870591    -0.24800
H4347       H  0.22123857  0.78020107  0.08053209     0.09100
H4348       H  0.20263176  0.80460502  0.10148533     0.12700
H4349       H  0.18115564  0.79205557  0.02943165     0.12700
H4350       H  0.15460040  0.81737797  0.03255529     0.12400
H4351       H  0.13802835  0.84421308  0.05251219     0.13000
H4352       H  0.17649772  0.83118645  0.10431018     0.14900
C4353       C  0.19711285  0.70306504  0.96738368    -0.05100
C4354       C  0.17619962  0.70573320  0.96927005    -0.05000
C4355       C  0.16286545  0.69616570  0.95553466    -0.23200
C4356       C  0.17033574  0.68431749  0.93939797     0.19000
C4357       C  0.19138422  0.68143130  0.93758529     0.16200
C4358       C  0.20454885  0.69046483  0.95180346    -0.18200
C4359       C  0.19901846  0.67016648  0.92115336    -0.20100
C4360       C  0.18591757  0.66199906  0.90645456    -0.12600
C4361       C  0.16505929  0.66483059  0.90811920     0.04100
C4362       C  0.15724083  0.67577025  0.92470577    -0.24800
H4363       H  0.17021903  0.71553408  0.98110730     0.09100
H4364       H  0.14678912  0.69856243  0.95713082     0.12700
H4365       H  0.22069499  0.68867418  0.94997441     0.12700
H4366       H  0.21511531  0.66793226  0.91951717     0.12400
H4367       H  0.19200034  0.65346736  0.89372095     0.13000
H4368       H  0.14107373  0.67789069  0.92588022     0.14900
C4369       C  0.30287952  0.72228666  0.94987800    -0.05100
C4370       C  0.32345984  0.72719998  0.95141925    -0.05000
C4371       C  0.33786276  0.71441930  0.94249052    -0.23200
C4372       C  0.33175807  0.69667833  0.93191324     0.19000
C4373       C  0.31093979  0.69245893  0.92938249     0.16200
C4374       C  0.29672469  0.70529783  0.93828721    -0.18200
C4375       C  0.30459466  0.67499304  0.91870829    -0.20100
C4376       C  0.31874481  0.66143839  0.91100469    -0.12600
C4377       C  0.33945472  0.66494606  0.91407983     0.04100
C4378       C  0.34596390  0.68276952  0.92430735    -0.24800
H4379       H  0.32842974  0.74012086  0.96057483     0.09100
H4380       H  0.35373814  0.71798336  0.94449091     0.12700
H4381       H  0.28080442  0.70148824  0.93711812     0.12700
H4382       H  0.28868199  0.67166955  0.91655781     0.12400
H4383       H  0.31354475  0.64796733  0.90282323     0.13000
H4384       H  0.36196912  0.68558217  0.92652468     0.14900
C4385       C  0.33893793  0.65103182  0.07326297    -0.05100
C4386       C  0.33234110  0.64360440  0.05419183    -0.05000
C4387       C  0.31653108  0.65324795  0.04377852    -0.23200
C4388       C  0.30693884  0.67017527  0.05254455     0.19000
C4389       C  0.31325808  0.67734793  0.07201146     0.16200
C4390       C  0.32943216  0.66795030  0.08206582    -0.18200
C4391       C  0.30351470  0.69400157  0.08096851    -0.20100
C4392       C  0.28844105  0.70431365  0.07018912    -0.12600
C4393       C  0.28288638  0.69812616  0.05028038     0.04100
C4394       C  0.29165844  0.68051267  0.04187389    -0.24800
H4395       H  0.33949209  0.63040059  0.04740781     0.09100
H4396       H  0.31184534  0.64752353  0.02889650     0.12700
H4397       H  0.33450904  0.67352690  0.09690050     0.12700
H4398       H  0.30801723  0.69947748  0.09600527     0.12400
H4399       H  0.28185874  0.71777747  0.07706035     0.13000
H4400       H  0.28753654  0.67558055  0.02653946     0.14900
C4401       C  0.30404439  0.80177636  0.02981716    -0.05100
C4402       C  0.30610265  0.82233270  0.02415765    -0.05000
C4403       C  0.31762783  0.83569797  0.03636229    -0.23200
C4404       C  0.32726213  0.82855529  0.05422430     0.19000
C4405       C  0.32617766  0.80757544  0.05919322     0.16200
C4406       C  0.31466819  0.79439242  0.04695299    -0.18200
C4407       C  0.33597964  0.80019289  0.07675840    -0.20100
C4408       C  0.34626538  0.81361765  0.08974862    -0.12600
C4409       C  0.34657951  0.83465935  0.08558774     0.04100
C4410       C  0.33740533  0.84202756  0.06755961    -0.24800
H4411       H  0.29794017  0.82825813  0.01101725     0.09100
H4412       H  0.31845705  0.85170304  0.03222482     0.12700
H4413       H  0.31328212  0.77843947  0.05124479     0.12700
H4414       H  0.33538852  0.78410463  0.08063582     0.12400
H4415       H  0.35358401  0.80768123  0.10338786     0.13000
H4416       H  0.33778007  0.85825341  0.06424526     0.14900
C4417       C  0.41329033  0.65909317  0.66517027    -0.05100
C4418       C  0.40940059  0.65893672  0.68624274    -0.05000
C4419       C  0.42199574  0.66942764  0.69990165    -0.23200
C4420       C  0.43894294  0.67996524  0.69276556     0.19000
C4421       C  0.44381423  0.67917852  0.67177226     0.16200
C4422       C  0.43086880  0.66876914  0.65803018    -0.18200
C4423       C  0.46114256  0.68943162  0.66490374    -0.20100
C4424       C  0.47296041  0.70109925  0.67855122    -0.12600
C4425       C  0.46743401  0.70285979  0.69914669     0.04100
C4426       C  0.45066951  0.69186429  0.70621246    -0.24800
H4427       H  0.39610096  0.65129865  0.69200399     0.09100
H4428       H  0.41821253  0.66969745  0.71598880     0.12700
H4429       H  0.43401358  0.66878353  0.64178634     0.12700
H4430       H  0.46522298  0.68889564  0.64890466     0.12400
H4431       H  0.48576338  0.70957975  0.67282078     0.13000
H4432       H  0.44640172  0.69308948  0.72214650     0.14900
C4433       C  0.44630001  0.80769078  0.71795810    -0.05100
C4434       C  0.44991128  0.82877356  0.71601516    -0.05000
C4435       C  0.43838819  0.84046607  0.70236460    -0.23200
C4436       C  0.42347930  0.83110572  0.69012381     0.19000
C4437       C  0.41939947  0.81002021  0.69245722     0.16200
C4438       C  0.43052364  0.79860638  0.70662209    -0.18200
C4439       C  0.40488202  0.80043662  0.67993297    -0.20100
C4440       C  0.39486774  0.81153083  0.66476835    -0.12600
C4441       C  0.39906442  0.83233700  0.66219577     0.04100
C4442       C  0.41305350  0.84222408  0.67509883    -0.24800
H4443       H  0.46198618  0.83608966  0.72462682     0.09100
H4444       H  0.44164609  0.85662719  0.70082005     0.12700
H4445       H  0.42770025  0.78232239  0.70783235     0.12700
H4446       H  0.40160988  0.78428872  0.68157007     0.12400
H4447       H  0.38388310  0.80393188  0.65497444     0.13000
H4448       H  0.41608823  0.85838579  0.67306187     0.14900
C4449       C  0.42191069  0.66679736  0.84859430    -0.05100
C4450       C  0.43986490  0.67424353  0.85739916    -0.05000
C4451       C  0.45089514  0.68954057  0.84764928    -0.23200
C4452       C  0.44394547  0.69776023  0.82907806     0.19000
C4453       C  0.42557753  0.69061868  0.82039406     0.16200
C4454       C  0.41479340  0.67500949  0.83008975    -0.18200
C4455       C  0.41844114  0.69902729  0.80203956    -0.20100
C4456       C  0.42974510  0.71384476  0.79196054    -0.12600
C4457       C  0.44848178  0.72045821  0.79996619     0.04100
C4458       C  0.45528382  0.71262202  0.81880953    -0.24800
H4459       H  0.44538735  0.66804711  0.87175166     0.09100
H4460       H  0.46488373  0.69486649  0.85456974     0.12700
H4461       H  0.40084034  0.66927353  0.82338230     0.12700
H4462       H  0.40433365  0.69384024  0.79524966     0.12400
H4463       H  0.42412977  0.71952175  0.77742744     0.13000
H4464       H  0.46967587  0.71756153  0.82515402     0.14900
C4465       C  0.59860475  0.67638475  0.83213446    -0.05100
C4466       C  0.59979093  0.69761184  0.83518582    -0.05000
C4467       C  0.58949690  0.71095504  0.82215099    -0.23200
C4468       C  0.57801718  0.70327475  0.80570162     0.19000
C4469       C  0.57782309  0.68203527  0.80165279     0.16200
C4470       C  0.58802257  0.66868516  0.81500014    -0.18200
C4471       C  0.56670519  0.67449705  0.78483518    -0.20100
C4472       C  0.55482018  0.68770424  0.77297691    -0.12600
C4473       C  0.55373913  0.70853047  0.77795044     0.04100
C4474       C  0.56591400  0.71634895  0.79388180    -0.24800
H4475       H  0.60819162  0.70378835  0.84811000     0.09100
H4476       H  0.59004693  0.72721942  0.82527849     0.12700
H4477       H  0.58721256  0.65231506  0.81250188     0.12700
H4478       H  0.56657749  0.65830082  0.78135075     0.12400
H4479       H  0.54548416  0.68144627  0.76077286     0.13000
H4480       H  0.56523033  0.73248589  0.79764621     0.14900
C4481       C  0.58937405  0.84313947  0.66606550    -0.05100
C4482       C  0.59198858  0.84556621  0.68724844    -0.05000
C4483       C  0.58303475  0.83188350  0.70073069    -0.23200
C4484       C  0.57143557  0.81553910  0.69316137     0.19000
C4485       C  0.56929735  0.81254193  0.67181269     0.16200
C4486       C  0.57825313  0.82645582  0.65836368    -0.18200
C4487       C  0.55776254  0.79602963  0.66436820    -0.20100
C4488       C  0.54759187  0.78322453  0.67797078    -0.12600
C4489       C  0.54880514  0.78691413  0.69908333     0.04100
C4490       C  0.56122140  0.80267888  0.70660772    -0.24800
H4491       H  0.60076546  0.85824528  0.69329869     0.09100
H4492       H  0.58489092  0.83427462  0.71705658     0.12700
H4493       H  0.57637558  0.82456703  0.64196449     0.12700
H4494       H  0.55603857  0.79347170  0.64805669     0.12400
H4495       H  0.53782978  0.77127519  0.67198050     0.13000
H4496       H  0.56211753  0.80552323  0.72295602     0.14900
C4497       C  0.19921910  0.19756980  0.46748717    -0.05100
C4498       C  0.20223874  0.17640900  0.46936704    -0.05000
C4499       C  0.19379014  0.16291973  0.45506108    -0.23200
C4500       C  0.18259331  0.17044956  0.43841240     0.19000
C4501       C  0.17922639  0.19171029  0.43657606     0.16200
C4502       C  0.18723655  0.20507136  0.45133147    -0.18200
C4503       C  0.16847417  0.19932120  0.41964621    -0.20100
C4504       C  0.16116206  0.18597267  0.40461491    -0.12600
C4505       C  0.16441814  0.16489640  0.40641760     0.04100
C4506       C  0.17502762  0.15715054  0.42335495    -0.24800
H4507       H  0.21158405  0.17034957  0.48161435     0.09100
H4508       H  0.19652707  0.14667880  0.45666957     0.12700
H4509       H  0.18517313  0.22140706  0.44951808     0.12700
H4510       H  0.16585821  0.21557464  0.41796607     0.12400
H4511       H  0.15283986  0.19201008  0.39162577     0.13000
H4512       H  0.17744501  0.14081601  0.42466169     0.14900
C4513       C  0.33157506  0.15228255  0.58464463    -0.05100
C4514       C  0.32617895  0.14441667  0.56536012    -0.05000
C4515       C  0.31088307  0.15363777  0.55375528    -0.23200
C4516       C  0.30069923  0.17078127  0.56137279     0.19000
C4517       C  0.30570587  0.17839424  0.58104778     0.16200
C4518       C  0.32124610  0.16922531  0.59246078    -0.18200
C4519       C  0.29546343  0.19539730  0.58874838    -0.20100
C4520       C  0.28117153  0.20551002  0.57664304    -0.12600
C4521       C  0.27684888  0.19881665  0.55659244     0.04100
C4522       C  0.28620941  0.18094551  0.54933816    -0.24800
H4523       H  0.33407665  0.13135374  0.55918594     0.09100
H4524       H  0.30724023  0.14757298  0.53871940     0.12700
H4525       H  0.32549446  0.17531610  0.60734451     0.12700
H4526       H  0.29899398  0.20129907  0.60387713     0.12400
H4527       H  0.27423365  0.21919189  0.58266222     0.13000
H4528       H  0.28307159  0.17556318  0.53392788     0.14900
C4529       C  0.30370134  0.29409508  0.53294876    -0.05100
C4530       C  0.30725382  0.31471440  0.52844966    -0.05000
C4531       C  0.31977269  0.32646607  0.54127963    -0.23200
C4532       C  0.32891469  0.31762606  0.55861772     0.19000
C4533       C  0.32637754  0.29651730  0.56238070     0.16200
C4534       C  0.31380752  0.28493318  0.54952634    -0.18200
C4535       C  0.33572276  0.28750491  0.57944298    -0.20100
C4536       C  0.34690937  0.29946179  0.59314952    -0.12600
C4537       C  0.34863578  0.32063230  0.59018233     0.04100
C4538       C  0.33994133  0.32959095  0.57264584    -0.24800
H4539       H  0.29940021  0.32198851  0.51581360     0.09100
H4540       H  0.32170325  0.34259254  0.53808505     0.12700
H4541       H  0.31108915  0.26894511  0.55295973     0.12700
H4542       H  0.33406227  0.27129589  0.58239033     0.12400
H4543       H  0.35386877  0.29229453  0.60637169     0.13000
H4544       H  0.34140778  0.34591800  0.57023291     0.14900
C4545       C  0.16579534  0.35279534  0.42247432    -0.05100
C4546       C  0.16272836  0.35306588  0.44368883    -0.05000
C4547       C  0.17580783  0.34260891  0.45685496    -0.23200
C4548       C  0.19220547  0.33172815  0.44899571     0.19000
C4549       C  0.19624075  0.33247035  0.42780986     0.16200
C4550       C  0.18299710  0.34308127  0.41464628    -0.18200
C4551       C  0.21286478  0.32172603  0.42010993    -0.20100
C4552       C  0.22454480  0.30929089  0.43304521    -0.12600
C4553       C  0.21966888  0.30736760  0.45378492     0.04100
C4554       C  0.20392457  0.31919387  0.46179699    -0.24800
H4555       H  0.14973753  0.36078516  0.44995359     0.09100
H4556       H  0.17267807  0.34242035  0.47309404     0.12700
H4557       H  0.18550375  0.34303326  0.39828105     0.12700
H4558       H  0.21629886  0.32224604  0.40394934     0.12400
H4559       H  0.23654009  0.30019088  0.42660456     0.13000
H4560       H  0.20016101  0.31780167  0.47784972     0.14900
C4561       C  0.29470019  0.21814827  0.44834464    -0.05100
C4562       C  0.29453738  0.22486802  0.42795611    -0.05000
C4563       C  0.30360229  0.21314722  0.41262660    -0.23200
C4564       C  0.31324890  0.19467127  0.41750335     0.19000
C4565       C  0.31428012  0.18829964  0.43814969     0.16200
C4566       C  0.30489572  0.19997010  0.45335982    -0.18200
C4567       C  0.32424796  0.17009292  0.44319290    -0.20100
C4568       C  0.33267374  0.15801540  0.42788112    -0.12600
C4569       C  0.33106071  0.16373050  0.40721601     0.04100
C4570       C  0.32153097  0.18225777  0.40211927    -0.24800
H4571       H  0.28657373  0.23868667  0.42373361     0.09100
H4572       H  0.30271901  0.21832774  0.39690829     0.12700
H4573       H  0.30513186  0.19468178  0.46907988     0.12700
H4574       H  0.32532583  0.16506867  0.45895600     0.12400
H4575       H  0.34015263  0.14391218  0.43209521     0.13000
H4576       H  0.32030592  0.18676960  0.38620332     0.14900
C4577       C  0.15170342  0.34576099  0.57241781    -0.05100
C4578       C  0.14871529  0.34375959  0.55124580    -0.05000
C4579       C  0.15799117  0.32789364  0.54055413    -0.23200
C4580       C  0.17057096  0.31400972  0.55090627     0.19000
C4581       C  0.17354995  0.31594063  0.57228058     0.16200
C4582       C  0.16389749  0.33168600  0.58292996    -0.18200
C4583       C  0.18659375  0.30246496  0.58252444    -0.20100
C4584       C  0.19729992  0.28776097  0.57156703    -0.12600
C4585       C  0.19469484  0.28590995  0.55028901     0.04100
C4586       C  0.18084289  0.29874290  0.54013727    -0.24800
H4587       H  0.13919570  0.35448240  0.54306061     0.09100
H4588       H  0.15560051  0.32667783  0.52416769     0.12700
H4589       H  0.16612280  0.33329409  0.59931992     0.12700
H4590       H  0.18904215  0.30375648  0.59889718     0.12400
H4591       H  0.20797155  0.27812197  0.57965266     0.13000
H4592       H  0.17900213  0.29770672  0.52365858     0.14900
C4593       C  0.20633487  0.46132347  0.19076164    -0.05100
C4594       C  0.21553733  0.45438782  0.17272407    -0.05000
C4595       C  0.20568792  0.44063294  0.15976552    -0.23200
C4596       C  0.18639276  0.43357395  0.16450939     0.19000
C4597       C  0.17654613  0.44099892  0.18212706     0.16200
C4598       C  0.18657866  0.45489040  0.19515383    -0.18200
C4599       C  0.15706893  0.43395039  0.18663369    -0.20100
C4600       C  0.14767239  0.41940945  0.17400834    -0.12600
C4601       C  0.15767977  0.41175743  0.15684285     0.04100
C4602       C  0.17694370  0.41893364  0.15206715    -0.24800
H4603       H  0.23070845  0.45908479  0.16887298     0.09100
H4604       H  0.21335003  0.43518934  0.14624915     0.12700
H4605       H  0.17928217  0.46014255  0.20895695     0.12700
H4606       H  0.14922732  0.43950303  0.19999007     0.12400
H4607       H  0.13269990  0.41395841  0.17768934     0.13000
H4608       H  0.18453191  0.41299733  0.13869702     0.14900
C4609       C  0.28660362  0.54622188  0.18972535    -0.05100
C4610       C  0.29113114  0.53816090  0.17033196    -0.05000
C4611       C  0.30554974  0.54743108  0.15805376    -0.23200
C4612       C  0.31579714  0.56487354  0.16497549     0.19000
C4613       C  0.31082024  0.57367869  0.18405071     0.16200
C4614       C  0.29607340  0.56441657  0.19621329    -0.18200
C4615       C  0.32121587  0.59115825  0.19092715    -0.20100
C4616       C  0.33661894  0.59958582  0.17915063    -0.12600
C4617       C  0.34172241  0.59063587  0.16041594     0.04100
C4618       C  0.33120408  0.57342638  0.15328869    -0.24800
H4619       H  0.28408740  0.52416812  0.16493553     0.09100
H4620       H  0.30912659  0.54058723  0.14342458     0.12700
H4621       H  0.29283723  0.57072322  0.21116872     0.12700
H4622       H  0.31756845  0.59816532  0.20545342     0.12400
H4623       H  0.34451673  0.61310562  0.18455516     0.13000
H4624       H  0.33510518  0.56675097  0.13865512     0.14900
C4625       C  0.30127134  0.53604613  0.29546870    -0.05100
C4626       C  0.32174179  0.53106601  0.29779834    -0.05000
C4627       C  0.33499668  0.54457673  0.30785943    -0.23200
C4628       C  0.32784600  0.56305982  0.31599604     0.19000
C4629       C  0.30703129  0.56756174  0.31459011     0.16200
C4630       C  0.29396642  0.55414369  0.30421627    -0.18200
C4631       C  0.29963499  0.58560811  0.32323510    -0.20100
C4632       C  0.31275491  0.59924819  0.33303862    -0.12600
C4633       C  0.33360548  0.59543743  0.33389180     0.04100
C4634       C  0.34107597  0.57721135  0.32533915    -0.24800
H4635       H  0.32764471  0.51726949  0.29093928     0.09100
H4636       H  0.35086975  0.54076800  0.30892803     0.12700
H4637       H  0.27812959  0.55800026  0.30249208     0.12700
H4638       H  0.28368442  0.58915851  0.32245655     0.12400
H4639       H  0.30663374  0.61294158  0.33990436     0.13000
H4640       H  0.35711691  0.57406556  0.32608809     0.14900
C4641       C  0.22315421  0.45397850  0.30157731    -0.05100
C4642       C  0.22787905  0.43345653  0.30543751    -0.05000
C4643       C  0.21534365  0.42159851  0.31791737    -0.23200
C4644       C  0.19805881  0.43020975  0.32675034     0.19000
C4645       C  0.19409822  0.45123653  0.32397443     0.16200
C4646       C  0.20662481  0.46290582  0.31142328    -0.18200
C4647       C  0.17714895  0.46009037  0.33302384    -0.20100
C4648       C  0.16360839  0.44801966  0.34389531    -0.12600
C4649       C  0.16659123  0.42685138  0.34561519     0.04100
C4650       C  0.18421003  0.41810030  0.33755442    -0.24800
H4651       H  0.24050302  0.42632594  0.29786828     0.09100
H4652       H  0.21873367  0.40554858  0.32003583     0.12700
H4653       H  0.20300552  0.47881228  0.30854090     0.12700
H4654       H  0.17407408  0.47625010  0.33122623     0.12400
H4655       H  0.15033977  0.45505659  0.35035741     0.13000
H4656       H  0.18668798  0.40179930  0.33905282     0.14900
C4657       C  0.20016326  0.55190268  0.26947341    -0.05100
C4658       C  0.17983240  0.54678073  0.27281184    -0.05000
C4659       C  0.16797515  0.55865624  0.28580178    -0.23200
C4660       C  0.17635168  0.57564680  0.29593645     0.19000
C4661       C  0.19661604  0.58122293  0.29223005     0.16200
C4662       C  0.20823036  0.56955027  0.27880843    -0.18200
C4663       C  0.20524600  0.59788017  0.30268354    -0.20100
C4664       C  0.19405050  0.60866106  0.31704989    -0.12600
C4665       C  0.17404624  0.60308284  0.32098447     0.04100
C4666       C  0.16510069  0.58676299  0.31022081    -0.24800
H4667       H  0.17327913  0.53319422  0.26592821     0.09100
H4668       H  0.15247970  0.55414546  0.28846217     0.12700
H4669       H  0.22394559  0.57356101  0.27663451     0.12700
H4670       H  0.22078346  0.60227623  0.30008364     0.12400
H4671       H  0.20104117  0.62121154  0.32534389     0.13000
H4672       H  0.14964966  0.58243928  0.31342739     0.14900
C4673       C  0.34347283  0.40769094  0.16703649    -0.05100
C4674       C  0.32455986  0.39859124  0.17013890    -0.05000
C4675       C  0.31165069  0.40614049  0.18504713    -0.23200
C4676       C  0.31764240  0.42268047  0.19735049     0.19000
C4677       C  0.33715097  0.43118868  0.19519198     0.16200
C4678       C  0.34984487  0.42384295  0.17978635    -0.18200
C4679       C  0.34315071  0.44757472  0.20777948    -0.20100
C4680       C  0.32938895  0.45645373  0.22121607    -0.12600
C4681       C  0.30956389  0.44899159  0.22223259     0.04100
C4682       C  0.30398642  0.43167956  0.21083159    -0.24800
H4683       H  0.31952611  0.38607961  0.16045492     0.09100
H4684       H  0.29679471  0.39939363  0.18659398     0.12700
H4685       H  0.36439152  0.43099464  0.17730793     0.12700
H4686       H  0.35809032  0.45418455  0.20645766     0.12400
H4687       H  0.33371916  0.47012480  0.22957212     0.13000
H4688       H  0.28853052  0.42620942  0.21132371     0.14900
C4689       C  0.91888944  0.16190829  0.83083204    -0.05100
C4690       C  0.91452470  0.16104262  0.80981446    -0.05000
C4691       C  0.92243444  0.17569186  0.79662096    -0.23200
C4692       C  0.93491953  0.19132130  0.80429529     0.19000
C4693       C  0.93945622  0.19221397  0.82549217     0.16200
C4694       C  0.93128969  0.17754602  0.83866058    -0.18200
C4695       C  0.95239750  0.20750837  0.83305390    -0.20100
C4696       C  0.96137623  0.22130852  0.81962514    -0.12600
C4697       C  0.95710900  0.22036891  0.79854001     0.04100
C4698       C  0.94346335  0.20566443  0.79102914    -0.24800
H4699       H  0.90486911  0.14906992  0.80369425     0.09100
H4700       H  0.91891599  0.17471681  0.78041809     0.12700
H4701       H  0.93460435  0.17814866  0.85493845     0.12700
H4702       H  0.95605032  0.20840375  0.84923481     0.12400
H4703       H  0.97200660  0.23246929  0.82563784     0.13000
H4704       H  0.94046135  0.20460820  0.77471378     0.14900
C4705       C  0.85197560  0.16842124  0.91166071    -0.05100
C4706       C  0.86096211  0.17547733  0.92988579    -0.05000
C4707       C  0.85230756  0.19147619  0.94089333    -0.23200
C4708       C  0.83451442  0.20076713  0.93379984     0.19000
C4709       C  0.82558428  0.19412663  0.91519366     0.16200
C4710       C  0.83431103  0.17787682  0.90427315    -0.18200
C4711       C  0.80785705  0.20357871  0.90811888    -0.20100
C4712       C  0.79851222  0.21872627  0.91984645    -0.12600
C4713       C  0.80672772  0.22476286  0.93886665     0.04100
C4714       C  0.82514336  0.21607728  0.94539310    -0.24800
H4715       H  0.87463368  0.16841104  0.93567302     0.09100
H4716       H  0.85939504  0.19640961  0.95509033     0.12700
H4717       H  0.82739042  0.17248576  0.89014977     0.12700
H4718       H  0.80087234  0.19881937  0.89381306     0.12400
H4719       H  0.78435276  0.22504517  0.91443243     0.13000
H4720       H  0.83175954  0.22053534  0.95998121     0.14900
C4721       C  0.59302272  0.92217485  0.90831243    -0.05100
C4722       C  0.59755616  0.94314414  0.90871925    -0.05000
C4723       C  0.58415283  0.95706543  0.91734931    -0.23200
C4724       C  0.56587964  0.95027546  0.92561604     0.19000
C4725       C  0.56072676  0.92932490  0.92460260     0.16200
C4726       C  0.57438470  0.91536821  0.91599627    -0.18200
C4727       C  0.54224291  0.92271870  0.93269239    -0.20100
C4728       C  0.52951007  0.93656672  0.94265105    -0.12600
C4729       C  0.53515067  0.95716601  0.94474979     0.04100
C4730       C  0.55307059  0.96399684  0.93560547    -0.24800
H4731       H  0.61161372  0.94869812  0.90247400     0.09100
H4732       H  0.58821496  0.97311639  0.91782667     0.12700
H4733       H  0.57070080  0.89921910  0.91546774     0.12700
H4734       H  0.53796399  0.90673779  0.93193340     0.12400
H4735       H  0.51588601  0.93095936  0.94975037     0.13000
H4736       H  0.55748916  0.97991350  0.93708971     0.14900
C4737       C  0.58668552  0.84822053  0.83247325    -0.05100
C4738       C  0.58560111  0.85284640  0.81157834    -0.05000
C4739       C  0.56977031  0.84521485  0.79955378    -0.23200
C4740       C  0.55506703  0.83255280  0.80825582     0.19000
C4741       C  0.55581136  0.82822044  0.82943242     0.16200
C4742       C  0.57150026  0.83639214  0.84150348    -0.18200
C4743       C  0.54145562  0.81497809  0.83790239    -0.20100
C4744       C  0.52750234  0.80485172  0.82522073    -0.12600
C4745       C  0.52727450  0.80841669  0.80403440     0.04100
C4746       C  0.54043837  0.82311169  0.79585789    -0.24800
H4747       H  0.59711584  0.86223990  0.80460966     0.09100
H4748       H  0.56938173  0.84866948  0.78334472     0.12700
H4749       H  0.57234674  0.83303929  0.85773285     0.12700
H4750       H  0.54173645  0.81159711  0.85412684     0.12400
H4751       H  0.51745941  0.79363308  0.83183183     0.13000
H4752       H  0.54054143  0.82587683  0.77950291     0.14900
C4753       C  0.84082298  0.59157422  0.82810619    -0.05100
C4754       C  0.84122540  0.59704322  0.80735406    -0.05000
C4755       C  0.83224705  0.58453904  0.79256016    -0.23200
C4756       C  0.82286776  0.56624680  0.79828303     0.19000
C4757       C  0.82345147  0.55992902  0.81896428     0.16200
C4758       C  0.83242945  0.57269959  0.83382354    -0.18200
C4759       C  0.81428737  0.54138193  0.82445888    -0.20100
C4760       C  0.80358011  0.52987403  0.80983874    -0.12600
C4761       C  0.80179505  0.53685656  0.78960551     0.04100
C4762       C  0.81209670  0.55468475  0.78379530    -0.24800
H4763       H  0.84791651  0.61141726  0.80272782     0.09100
H4764       H  0.83211833  0.58946893  0.77673841     0.12700
H4765       H  0.83224798  0.56839644  0.84983181     0.12700
H4766       H  0.81475799  0.53617456  0.84018252     0.12400
H4767       H  0.79574334  0.51616521  0.81460051     0.13000
H4768       H  0.81099199  0.56004152  0.76812477     0.14900
C4769       C  0.91542242  0.59318887  0.90514052    -0.05100
C4770       C  0.93628597  0.59649167  0.90363716    -0.05000
C4771       C  0.94987311  0.58321839  0.91311324    -0.23200
C4772       C  0.94277927  0.56637616  0.92416315     0.19000
C4773       C  0.92183119  0.56239955  0.92507841     0.16200
C4774       C  0.90824057  0.57586546  0.91549814    -0.18200
C4775       C  0.91489349  0.54541267  0.93612256    -0.20100
C4776       C  0.92852685  0.53309379  0.94699982    -0.12600
C4777       C  0.94921943  0.53768094  0.94699796     0.04100
C4778       C  0.95627426  0.55396451  0.93502296    -0.24800
H4779       H  0.94200262  0.60963368  0.89544509     0.09100
H4780       H  0.96589910  0.58636851  0.91217204     0.12700
H4781       H  0.89212287  0.57324768  0.91651857     0.12700
H4782       H  0.89889813  0.54208607  0.93692499     0.12400
H4783       H  0.92280802  0.52073745  0.95631622     0.13000
H4784       H  0.97227060  0.55753105  0.93490898     0.14900
C4785       C  0.90225481  0.92034839  0.57899969    -0.05100
C4786       C  0.89337184  0.93711878  0.56914669    -0.05000
C4787       C  0.90416304  0.94814992  0.55460915    -0.23200
C4788       C  0.92393955  0.94244737  0.54976269     0.19000
C4789       C  0.93275584  0.92525265  0.55937632     0.16200
C4790       C  0.92187327  0.91437002  0.57403595    -0.18200
C4791       C  0.95245525  0.91949565  0.55447970    -0.20100
C4792       C  0.96363077  0.93107762  0.54069248    -0.12600
C4793       C  0.95531311  0.94865405  0.53161442     0.04100
C4794       C  0.93524973  0.95398841  0.53592775    -0.24800
H4795       H  0.87821437  0.94181774  0.57298036     0.09100
H4796       H  0.89717053  0.96127012  0.54737814     0.12700
H4797       H  0.92864643  0.90140818  0.58178415     0.12700
H4798       H  0.95938520  0.90631791  0.56167015     0.12400
H4799       H  0.97907785  0.92670159  0.53776270     0.13000
H4800       H  0.92863317  0.96750193  0.52905373     0.14900
C4801       C  0.83746555  0.83659704  0.58028967    -0.05100
C4802       C  0.83727449  0.81558654  0.58460146    -0.05000
C4803       C  0.82845057  0.80180013  0.57088977    -0.23200
C4804       C  0.81993569  0.80878116  0.55248856     0.19000
C4805       C  0.82118695  0.82968289  0.54728651     0.16200
C4806       C  0.82989403  0.84351972  0.56130388    -0.18200
C4807       C  0.81282082  0.83641807  0.52861937    -0.20100
C4808       C  0.80184425  0.82285181  0.51608730    -0.12600
C4809       C  0.79920700  0.80245600  0.52213067     0.04100
C4810       C  0.80917841  0.79534297  0.53979951    -0.24800
H4811       H  0.84343511  0.80994880  0.59892930     0.09100
H4812       H  0.82776607  0.78576069  0.57494523     0.12700
H4813       H  0.83018762  0.85970844  0.55781034     0.12700
H4814       H  0.81391498  0.85233844  0.52422506     0.12400
H4815       H  0.79433243  0.82859188  0.50247627     0.13000
H4816       H  0.80748519  0.77950156  0.54437102     0.14900
C4817       C  0.83419029  0.92162395  0.16038289    -0.05100
C4818       C  0.83528793  0.94270052  0.15677141    -0.05000
C4819       C  0.82694751  0.95638098  0.17060008    -0.23200
C4820       C  0.81748166  0.94908210  0.18820422     0.19000
C4821       C  0.81711743  0.92790187  0.19244741     0.16200
C4822       C  0.82554676  0.91425235  0.17844520    -0.18200
C4823       C  0.80756992  0.92077150  0.21015620    -0.20100
C4824       C  0.79723998  0.93440935  0.22277126    -0.12600
C4825       C  0.79652062  0.95520257  0.21774294     0.04100
C4826       C  0.80737903  0.96255449  0.20100576    -0.24800
H4827       H  0.84228445  0.94847518  0.14302843     0.09100
H4828       H  0.82742802  0.97259663  0.16727481     0.12700
H4829       H  0.82497407  0.89793043  0.18124344     0.12700
H4830       H  0.80728485  0.90460100  0.21369056     0.12400
H4831       H  0.78874316  0.92857246  0.23557331     0.13000
H4832       H  0.80683875  0.97868922  0.19721034     0.14900
C4833       C  0.94212771  0.80914164  0.22005754    -0.05100
C4834       C  0.92147556  0.80420497  0.22044977    -0.05000
C4835       C  0.90792310  0.81357995  0.20695277    -0.23200
C4836       C  0.91490359  0.82770111  0.19256122     0.19000
C4837       C  0.93544349  0.83366571  0.19285739     0.16200
C4838       C  0.94881313  0.82471423  0.20695380    -0.18200
C4839       C  0.94252470  0.84751614  0.17820944    -0.20100
C4840       C  0.92955774  0.85472806  0.16289356    -0.12600
C4841       C  0.90934329  0.84840245  0.16223760     0.04100
C4842       C  0.90191820  0.83529561  0.17733861    -0.24800
H4843       H  0.91596492  0.79233514  0.23049778     0.09100
H4844       H  0.89220000  0.80899052  0.20705327     0.12700
H4845       H  0.96471942  0.82858463  0.20643315     0.12700
H4846       H  0.95818474  0.85232412  0.17827112     0.12400
H4847       H  0.93524976  0.86519690  0.15149118     0.13000
H4848       H  0.88618653  0.83068813  0.17687819     0.14900
C4849       C  0.15797412  0.90405270  0.83414768    -0.05100
C4850       C  0.16590764  0.89433545  0.81690916    -0.05000
C4851       C  0.18126752  0.90363922  0.80583088    -0.23200
C4852       C  0.18889174  0.92271004  0.81200831     0.19000
C4853       C  0.18100099  0.93243245  0.82954162     0.16200
C4854       C  0.16545734  0.92309374  0.84041965    -0.18200
C4855       C  0.18864168  0.95141503  0.83578316    -0.20100
C4856       C  0.20349173  0.96106602  0.82435469    -0.12600
C4857       C  0.21096146  0.95188445  0.80649272     0.04100
C4858       C  0.20390535  0.93244361  0.80067232    -0.24800
H4859       H  0.16017662  0.87955057  0.81208382     0.09100
H4860       H  0.18712794  0.89598009  0.79244529     0.12700
H4861       H  0.15925631  0.93045020  0.85383249     0.12700
H4862       H  0.18283277  0.95899666  0.84923912     0.12400
H4863       H  0.20864489  0.97606193  0.82917535     0.13000
H4864       H  0.20946949  0.92523712  0.78689649     0.14900
C4865       C  0.15917591  0.83556096  0.91469093    -0.05100
C4866       C  0.15630536  0.83740408  0.93583313    -0.05000
C4867       C  0.17084584  0.83022141  0.94956342    -0.23200
C4868       C  0.18850571  0.82112975  0.94231921     0.19000
C4869       C  0.19191487  0.81979240  0.92104862     0.16200
C4870       C  0.17714873  0.82700988  0.90731340    -0.18200
C4871       C  0.20973867  0.81070489  0.91398982    -0.20100
C4872       C  0.22343228  0.80189753  0.92786838    -0.12600
C4873       C  0.21940733  0.80214777  0.94889214     0.04100
C4874       C  0.20233161  0.81247527  0.95603013    -0.24800
H4875       H  0.14269658  0.84432779  0.94167146     0.09100
H4876       H  0.16812849  0.83145987  0.96583972     0.12700
H4877       H  0.17944587  0.82581797  0.89095457     0.12700
H4878       H  0.21266044  0.80966437  0.89774239     0.12400
H4879       H  0.23641232  0.79377214  0.92211680     0.13000
H4880       H  0.19921341  0.81270829  0.97229458     0.14900
C4881       C  0.89967311  0.92530969  0.68505042    -0.05100
C4882       C  0.89119790  0.94272846  0.69398105    -0.05000
C4883       C  0.90108187  0.95263354  0.71020821    -0.23200
C4884       C  0.91946017  0.94506264  0.71784539     0.19000
C4885       C  0.92821948  0.92768645  0.70862329     0.16200
C4886       C  0.91833115  0.91800898  0.69216307    -0.18200
C4887       C  0.94641444  0.91994096  0.71639603    -0.20100
C4888       C  0.95555019  0.92890699  0.73355086    -0.12600
C4889       C  0.94677600  0.94591696  0.74317330     0.04100
C4890       C  0.92889405  0.95418285  0.73491810    -0.24800
H4891       H  0.87676340  0.94840750  0.68858511     0.09100
H4892       H  0.89414485  0.96591989  0.71707386     0.12700
H4893       H  0.92475991  0.90445426  0.68526622     0.12700
H4894       H  0.95336211  0.90668082  0.70948099     0.12400
H4895       H  0.96939225  0.92229560  0.73945268     0.13000
H4896       H  0.92192007  0.96725286  0.74216685     0.14900
C4897       C  0.99278943  0.93708352  0.80138668    -0.05100
C4898       C  0.99310250  0.91597425  0.79719951    -0.05000
C4899       C  0.00785973  0.90342757  0.80576619    -0.23200
C4900       C  0.02279881  0.91172743  0.81856949     0.19000
C4901       C  0.02258500  0.93287152  0.82323382     0.16200
C4902       C  0.00740366  0.94542373  0.81478510    -0.18200
C4903       C  0.03779459  0.94107226  0.83594322    -0.20100
C4904       C  0.05303907  0.92847222  0.84381391    -0.12600
C4905       C  0.05323488  0.90749952  0.83919461     0.04100
C4906       C  0.03806676  0.89921227  0.82658422    -0.24800
H4907       H  0.98191693  0.90908908  0.78711283     0.09100
H4908       H  0.00775141  0.88726095  0.80211892     0.12700
H4909       H  0.00736916  0.96167203  0.81805739     0.12700
H4910       H  0.03796455  0.95720953  0.83969245     0.12400
H4911       H  0.06467464  0.93503103  0.85359069     0.13000
H4912       H  0.03826735  0.88302401  0.82298857     0.14900
C4913       C  0.94840505  0.99828390  0.79746149    -0.05100
C4914       C  0.93391827  0.00955577  0.78632926    -0.05000
C4915       C  0.92490593  0.02684233  0.79475186    -0.23200
C4916       C  0.93009628  0.03328093  0.81455064     0.19000
C4917       C  0.94485933  0.02238102  0.82585991     0.16200
C4918       C  0.95401216  0.00503315  0.81721040    -0.18200
C4919       C  0.94986598  0.02879254  0.84579515    -0.20100
C4920       C  0.94006382  0.04554015  0.85453972    -0.12600
C4921       C  0.92529138  0.05626345  0.84343169     0.04100
C4922       C  0.92048602  0.05020758  0.82336265    -0.24800
H4923       H  0.92927627  0.00489245  0.77108125     0.09100
H4924       H  0.91364783  0.03501247  0.78585824     0.12700
H4925       H  0.96511372  0.99657437  0.82603320     0.12700
H4926       H  0.96111863  0.02066895  0.85472990     0.12400
H4927       H  0.94382761  0.05004694  0.87007647     0.13000
H4928       H  0.90895779  0.05841785  0.81485339     0.14900
C4929       C  0.93657156  0.75870875  0.94775375    -0.05100
C4930       C  0.91602283  0.75703597  0.95285505    -0.05000
C4931       C  0.90385487  0.74180349  0.94427465    -0.23200
C4932       C  0.91197493  0.72777046  0.93050240     0.19000
C4933       C  0.93262476  0.72913689  0.92529778     0.16200
C4934       C  0.94477522  0.74468835  0.93384713    -0.18200
C4935       C  0.94075303  0.71485683  0.91168188    -0.20100
C4936       C  0.92854826  0.69947186  0.90327708    -0.12600
C4937       C  0.90804284  0.69818769  0.90826634     0.04100
C4938       C  0.89979168  0.71236541  0.92188445    -0.24800
H4939       H  0.90920012  0.76763903  0.96345832     0.09100
H4940       H  0.88809497  0.74098293  0.94846114     0.12700
H4941       H  0.96058695  0.74570080  0.92988901     0.12700
H4942       H  0.95652401  0.71557755  0.90754638     0.12400
H4943       H  0.93504637  0.68856947  0.89276059     0.13000
H4944       H  0.88395535  0.71129840  0.92576791     0.14900
C4945       C  0.89733712  0.83485037  0.05729662    -0.05100
C4946       C  0.88840752  0.81718536  0.04910562    -0.05000
C4947       C  0.89772988  0.80666611  0.03325458    -0.23200
C4948       C  0.91600622  0.81384159  0.02533439     0.19000
C4949       C  0.92511055  0.83165407  0.03356357     0.16200
C4950       C  0.91571750  0.84203671  0.04961977    -0.18200
C4951       C  0.94328784  0.83884723  0.02541572    -0.20100
C4952       C  0.95231686  0.82852943  0.00915710    -0.12600
C4953       C  0.94328946  0.81086647  0.00081384     0.04100
C4954       C  0.92516090  0.80358669  0.00914405    -0.24800
H4955       H  0.87413150  0.81169722  0.05489216     0.09100
H4956       H  0.89055589  0.79306597  0.02704508     0.12700
H4957       H  0.92240858  0.85585565  0.05592193     0.12700
H4958       H  0.95043190  0.85251289  0.03151120     0.12400
H4959       H  0.96623578  0.83450578  0.00299360     0.13000
H4960       H  0.91798070  0.78997975  0.00294267     0.14900
C4961       C  0.99730251  0.80360476  0.95010740    -0.05100
C4962       C  0.00812281  0.81930202  0.96016429    -0.05000
C4963       C  0.02558484  0.82748144  0.95172544    -0.23200
C4964       C  0.03259251  0.82025594  0.93296602     0.19000
C4965       C  0.02223082  0.80417259  0.92281814     0.16200
C4966       C  0.00472823  0.79581309  0.93154308    -0.18200
C4967       C  0.02919428  0.79727593  0.90379241    -0.20100
C4968       C  0.04569649  0.80683353  0.89457755    -0.12600
C4969       C  0.05562200  0.82310675  0.90444971     0.04100
C4970       C  0.04935892  0.82941412  0.92384479    -0.24800
H4971       H  0.00293664  0.82559061  0.97450493     0.09100
H4972       H  0.03336052  0.83979648  0.95967482     0.12700
H4973       H  0.99660679  0.78373848  0.92357604     0.12700
H4974       H  0.02150143  0.78496411  0.89576824     0.12400
H4975       H  0.05039126  0.80194607  0.87952412     0.13000
H4976       H  0.05697176  0.84214350  0.93130828     0.14900
C4977       C  0.85205334  0.06165079  0.91870606    -0.05100
C4978       C  0.85954792  0.05484056  0.93764206    -0.05000
C4979       C  0.84994242  0.03884433  0.94789798    -0.23200
C4980       C  0.83288930  0.02931257  0.93915955     0.19000
C4981       C  0.82521366  0.03634835  0.92017101     0.16200
C4982       C  0.83469624  0.05262214  0.91020715    -0.18200
C4983       C  0.80843445  0.02672180  0.91120965    -0.20100
C4984       C  0.79932282  0.01017354  0.92087248    -0.12600
C4985       C  0.80675042  0.00292584  0.93975175     0.04100
C4986       C  0.82356592  0.01269158  0.94887239    -0.24800
H4987       H  0.87302962  0.06167572  0.94424890     0.09100
H4988       H  0.85606207  0.03367339  0.96242552     0.12700
H4989       H  0.82907610  0.05783842  0.89547567     0.12700
H4990       H  0.80244705  0.03188042  0.89661936     0.12400
H4991       H  0.78645718  0.00299345  0.91342447     0.13000
H4992       H  0.82952176  0.00729615  0.96339289     0.14900
C4993       C  0.75363408  0.95024624  0.93974827    -0.05100
C4994       C  0.74185041  0.96134419  0.92566364    -0.05000
C4995       C  0.72447969  0.95271744  0.91697226    -0.23200
C4996       C  0.71871990  0.93276173  0.92204632     0.19000
C4997       C  0.73060764  0.92132536  0.93598020     0.16200
C4998       C  0.74791766  0.93017904  0.94481603    -0.18200
C4999       C  0.72503757  0.90118691  0.94072149    -0.20100
C5000       C  0.70792085  0.89241860  0.93159510    -0.12600
C5001       C  0.69611295  0.90373424  0.91777590     0.04100
C5002       C  0.70145722  0.92392927  0.91315778    -0.24800
H5003       H  0.74589630  0.97684506  0.92157218     0.09100
H5004       H  0.71557117  0.96164174  0.90626033     0.12700
H5005       H  0.75700284  0.92138767  0.95550186     0.12700
H5006       H  0.73405124  0.89215708  0.95124999     0.12400
H5007       H  0.70406119  0.87669156  0.93496532     0.13000
H5008       H  0.69246950  0.93248188  0.90218646     0.14900
C5009       C  0.80364704  0.95239712  0.99572550    -0.05100
C5010       C  0.82026675  0.96161588  0.00565185    -0.05000
C5011       C  0.82834571  0.95319256  0.02353693    -0.23200
C5012       C  0.82004776  0.93532135  0.03173147     0.19000
C5013       C  0.80311280  0.92607993  0.02212663     0.16200
C5014       C  0.79494815  0.93475189  0.00429550    -0.18200
C5015       C  0.79501617  0.90798261  0.03018811    -0.20100
C5016       C  0.80414018  0.89870924  0.04714981    -0.12600
C5017       C  0.82119562  0.90763269  0.05638221     0.04100
C5018       C  0.82883114  0.92614466  0.04896096    -0.24800
H5019       H  0.82719863  0.97525812  0.99949739     0.09100
H5020       H  0.84131913  0.96044620  0.03074693     0.12700
H5021       H  0.78209867  0.92745694  0.99688848     0.12700
H5022       H  0.78202603  0.90071326  0.02302835     0.12400
H5023       H  0.79825540  0.88434090  0.05277347     0.13000
H5024       H  0.84214692  0.93284446  0.05609813     0.14900
C5025       C  0.79814848  0.75037768  0.79433971    -0.05100
C5026       C  0.81187768  0.73886733  0.78276546    -0.05000
C5027       C  0.82148992  0.72181809  0.79113680    -0.23200
C5028       C  0.81775293  0.71601088  0.81134975     0.19000
C5029       C  0.80356108  0.72704613  0.82299543     0.16200
C5030       C  0.79366702  0.74400095  0.81433849    -0.18200
C5031       C  0.80009390  0.72138920  0.84336311    -0.20100
C5032       C  0.81112108  0.70548760  0.85231466    -0.12600
C5033       C  0.82549459  0.69480217  0.84094847     0.04100
C5034       C  0.82848371  0.69981682  0.82034371    -0.24800
H5035       H  0.81550115  0.74323386  0.76725477     0.09100
H5036       H  0.83224634  0.71349843  0.78196190     0.12700
H5037       H  0.78314569  0.75268499  0.82346221     0.12700
H5038       H  0.78927701  0.72962592  0.85252956     0.12400
H5039       H  0.80874080  0.70173425  0.86824136     0.13000
H5040       H  0.83970175  0.69160580  0.81163125     0.14900
C5041       C  0.74977102  0.80813496  0.79707935    -0.05100
C5042       C  0.74229105  0.82639212  0.78854410    -0.05000
C5043       C  0.72572844  0.83631651  0.79703816    -0.23200
C5044       C  0.71625787  0.82826086  0.81430390     0.19000
C5045       C  0.72372449  0.81009767  0.82327110     0.16200
C5046       C  0.74041719  0.80016080  0.81462398    -0.18200
C5047       C  0.71440673  0.80227336  0.84080535    -0.20100
C5048       C  0.69806472  0.81250218  0.84950470    -0.12600
C5049       C  0.69064726  0.83054971  0.84068718     0.04100
C5050       C  0.69967399  0.83827198  0.82296771    -0.24800
H5051       H  0.74914782  0.83302341  0.77512842     0.09100
H5052       H  0.72030982  0.85030512  0.79006502     0.12700
H5053       H  0.74602586  0.78620760  0.82151866     0.12700
H5054       H  0.71997236  0.78845188  0.84798529     0.12400
H5055       H  0.69149295  0.80664111  0.86342185     0.13000
H5056       H  0.69421804  0.85246754  0.81643523     0.14900
C5057       C  0.80104895  0.80484803  0.74290410    -0.05100
C5058       C  0.81754942  0.79492529  0.73387598    -0.05000
C5059       C  0.82739089  0.80353913  0.71719786    -0.23200
C5060       C  0.82096453  0.82226934  0.70918560     0.19000
C5061       C  0.80429012  0.83236201  0.71793974     0.16200
C5062       C  0.79441150  0.82356936  0.73468913    -0.18200
C5063       C  0.79799505  0.85123193  0.70996769    -0.20100
C5064       C  0.80836405  0.86016281  0.69373823    -0.12600
C5065       C  0.82499319  0.85025364  0.68517592     0.04100
C5066       C  0.83114566  0.83123902  0.69278083    -0.24800
H5067       H  0.82303558  0.78050745  0.73979922     0.09100
H5068       H  0.84015100  0.79562386  0.71068103     0.12700
H5069       H  0.78173621  0.83143731  0.74143250     0.12700
H5070       H  0.78526736  0.85920356  0.71647111     0.12400
H5071       H  0.80361953  0.87492727  0.68800370     0.13000
H5072       H  0.84413874  0.82374429  0.68621105     0.14900
C5073       C  0.46818760  0.20512308  0.18951814    -0.05100
C5074       C  0.46611621  0.21281828  0.16952157    -0.05000
C5075       C  0.45135852  0.20507684  0.15626106    -0.23200
C5076       C  0.43834150  0.18961123  0.16281931     0.19000
C5077       C  0.44081210  0.18113829  0.18258945     0.16200
C5078       C  0.45590194  0.18876206  0.19570573    -0.18200
C5079       C  0.42766324  0.16570543  0.18916322    -0.20100
C5080       C  0.41202404  0.15896438  0.17634741    -0.12600
C5081       C  0.40946567  0.16753894  0.15687175     0.04100
C5082       C  0.42268210  0.18270868  0.15006265    -0.24800
H5083       H  0.47536703  0.22543133  0.16436682     0.09100
H5084       H  0.44971188  0.21163580  0.14112171     0.12700
H5085       H  0.45726384  0.18274464  0.21110274     0.12700
H5086       H  0.42937579  0.15899733  0.20422585     0.12400
H5087       H  0.40201152  0.14695407  0.18148703     0.13000
H5088       H  0.42070942  0.18905049  0.13485152     0.14900
C5089       C  0.53412342  0.30173769  0.29605256    -0.05100
C5090       C  0.52861089  0.30622608  0.31621067    -0.05000
C5091       C  0.54120393  0.31852131  0.32850873    -0.23200
C5092       C  0.55926103  0.32650690  0.32063453     0.19000
C5093       C  0.56404058  0.32302224  0.29990711     0.16200
C5094       C  0.55147646  0.31071374  0.28784251    -0.18200
C5095       C  0.58172638  0.33121802  0.29170910    -0.20100
C5096       C  0.59511386  0.34210412  0.30417180    -0.12600
C5097       C  0.59126128  0.34456706  0.32510841     0.04100
C5098       C  0.57301142  0.33722207  0.33318481    -0.24800
H5099       H  0.51523821  0.29938682  0.32271500     0.09100
H5100       H  0.53718465  0.32122398  0.34430623     0.12700
H5101       H  0.55560292  0.30744122  0.27214878     0.12700
H5102       H  0.58542555  0.32881378  0.27577190     0.12400
H5103       H  0.60890233  0.34801958  0.29764852     0.13000
H5104       H  0.56990742  0.33925848  0.34931190     0.14900
C5105       C  0.58822897  0.15837282  0.33451385    -0.05100
C5106       C  0.59961391  0.17442008  0.32632616    -0.05000
C5107       C  0.59168540  0.18638460  0.31055279    -0.23200
C5108       C  0.57230969  0.18231664  0.30271707     0.19000
C5109       C  0.56095119  0.16584213  0.31062264     0.16200
C5110       C  0.56894412  0.15404742  0.32660685    -0.18200
C5111       C  0.54165239  0.16171799  0.30268154    -0.20100
C5112       C  0.53328238  0.17437587  0.28769383    -0.12600
C5113       C  0.54408189  0.19136960  0.28042509     0.04100
C5114       C  0.56385483  0.19487534  0.28760643    -0.24800
H5115       H  0.61457309  0.17774974  0.33231348     0.09100
H5116       H  0.60059726  0.19892108  0.30463813     0.12700
H5117       H  0.56025432  0.14155242  0.33296056     0.12700
H5118       H  0.53280541  0.14908010  0.30848322     0.12400
H5119       H  0.51797339  0.17139521  0.28251692     0.13000
H5120       H  0.57235773  0.20790911  0.28212520     0.14900
C5121       C  0.61392216  0.32987373  0.17774521    -0.05100
C5122       C  0.61868803  0.32467249  0.19802538    -0.05000
C5123       C  0.60743564  0.30972896  0.20815928    -0.23200
C5124       C  0.59107563  0.30009846  0.19820577     0.19000
C5125       C  0.58659543  0.30498357  0.17758547     0.16200
C5126       C  0.59820947  0.31966247  0.16743228    -0.18200
C5127       C  0.56999867  0.29582196  0.16774867    -0.20100
C5128       C  0.55734004  0.28266453  0.17849754    -0.12600
C5129       C  0.56119859  0.27815842  0.19921105     0.04100
C5130       C  0.57851528  0.28648205  0.20879262    -0.24800
H5131       H  0.63074261  0.33257420  0.20612578     0.09100
H5132       H  0.61107669  0.30621622  0.22396596     0.12700
H5133       H  0.59446821  0.32390234  0.15181251     0.12700
H5134       H  0.56636787  0.29942325  0.15195586     0.12400
H5135       H  0.54410902  0.27654307  0.17075120     0.13000
H5136       H  0.58154836  0.28338026  0.22481949     0.14900
C5137       C  0.45791790  0.30507631  0.21577456    -0.05100
C5138       C  0.43727366  0.30616081  0.21998336    -0.05000
C5139       C  0.42434313  0.31658788  0.20664212    -0.23200
C5140       C  0.43204836  0.32608486  0.18913854     0.19000
C5141       C  0.45306275  0.32627421  0.18572902     0.16200
C5142       C  0.46584126  0.31582920  0.19912135    -0.18200
C5143       C  0.46087787  0.33616678  0.16853520    -0.20100
C5144       C  0.44789118  0.34563187  0.15462949    -0.12600
C5145       C  0.42696325  0.34488982  0.15753098     0.04100
C5146       C  0.41910350  0.33499605  0.17475066    -0.24800
H5147       H  0.43099151  0.29778865  0.23271044     0.09100
H5148       H  0.40828351  0.31656897  0.20957329     0.12700
H5149       H  0.48186507  0.31508204  0.19596676     0.12700
H5150       H  0.47697569  0.33648706  0.16580577     0.12400
H5151       H  0.45410821  0.35341827  0.14150009     0.13000
H5152       H  0.40291477  0.33441599  0.17694463     0.14900
C5153       C  0.39737313  0.17216317  0.32471959    -0.05100
C5154       C  0.38872213  0.18076038  0.30704875    -0.05000
C5155       C  0.39909893  0.19566109  0.29598045    -0.23200
C5156       C  0.41830754  0.20222147  0.30246425     0.19000
C5157       C  0.42679357  0.19416878  0.32071115     0.16200
C5158       C  0.41630802  0.17910437  0.33166817    -0.18200
C5159       C  0.44597497  0.20073585  0.32722805    -0.20100
C5160       C  0.45708407  0.21431076  0.31526317    -0.12600
C5161       C  0.44918198  0.22160709  0.29669050     0.04100
C5162       C  0.42960510  0.21588800  0.29052425    -0.24800
H5163       H  0.37412401  0.17550295  0.30155170     0.09100
H5164       H  0.39231548  0.20168950  0.28210170     0.12700
H5165       H  0.42301569  0.17239314  0.34527791     0.12700
H5166       H  0.45271003  0.19475680  0.34115239     0.12400
H5167       H  0.47235309  0.21822766  0.31992681     0.13000
H5168       H  0.42367752  0.22115839  0.27593663     0.14900
C5169       C  0.59063749  0.41722891  0.40257439    -0.05100
C5170       C  0.58897991  0.43808623  0.39806807    -0.05000
C5171       C  0.57358463  0.44970818  0.40665643    -0.23200
C5172       C  0.55974741  0.44059532  0.41996431     0.19000
C5173       C  0.56147284  0.41956206  0.42463988     0.16200
C5174       C  0.57687073  0.40797100  0.41580485    -0.18200
C5175       C  0.54792618  0.41056018  0.43825858    -0.20100
C5176       C  0.53309270  0.42237502  0.44756502    -0.12600
C5177       C  0.53135689  0.44336228  0.44324081     0.04100
C5178       C  0.54455872  0.45227851  0.42908254    -0.24800
H5179       H  0.59954214  0.44528040  0.38777802     0.09100
H5180       H  0.57255750  0.46581495  0.40298104     0.12700
H5181       H  0.57826289  0.39182079  0.41923135     0.12700
H5182       H  0.54908831  0.39449141  0.44207280     0.12400
H5183       H  0.52329488  0.41517126  0.45859418     0.13000
H5184       H  0.54368507  0.46851329  0.42591482     0.14900
C5185       C  0.45657308  0.53641977  0.54663451    -0.05100
C5186       C  0.44136400  0.52563025  0.55685457    -0.05000
C5187       C  0.42807409  0.53575236  0.56973776    -0.23200
C5188       C  0.42944464  0.55696190  0.57218215     0.19000
C5189       C  0.44502480  0.56794059  0.56233187     0.16200
C5190       C  0.45877170  0.55750554  0.54985598    -0.18200
C5191       C  0.44600135  0.58925318  0.56443467    -0.20100
C5192       C  0.43130214  0.59962238  0.57554705    -0.12600
C5193       C  0.41554138  0.58884169  0.58487060     0.04100
C5194       C  0.41498288  0.56745642  0.58360764    -0.24800
H5195       H  0.43950543  0.50933160  0.55447356     0.09100
H5196       H  0.41627494  0.52710412  0.57717346     0.12700
H5197       H  0.47032130  0.56588458  0.54173371     0.12700
H5198       H  0.45778497  0.59793988  0.55702757     0.12400
H5199       H  0.43192790  0.61614075  0.57651496     0.13000
H5200       H  0.40286095  0.55913611  0.59091114     0.14900
C5201       C  0.40782728  0.59006685  0.41061856    -0.05100
C5202       C  0.40091947  0.58613479  0.43042661    -0.05000
C5203       C  0.40923274  0.57024853  0.44198385    -0.23200
C5204       C  0.42473128  0.55817743  0.43394887     0.19000
C5205       C  0.43182187  0.56207714  0.41400000     0.16200
C5206       C  0.42317270  0.57792017  0.40236013    -0.18200
C5207       C  0.44768179  0.55030887  0.40624533    -0.20100
C5208       C  0.45678784  0.53519000  0.41832947    -0.12600
C5209       C  0.44992155  0.53124780  0.43823247     0.04100
C5210       C  0.43360029  0.54264158  0.44576382    -0.24800
H5211       H  0.38903640  0.59537885  0.43688455     0.09100
H5212       H  0.40368381  0.56753162  0.45727691     0.12700
H5213       H  0.42847997  0.58101204  0.38703779     0.12700
H5214       H  0.45336088  0.55312126  0.39101930     0.12400
H5215       H  0.46943602  0.52679803  0.41222180     0.13000
H5216       H  0.42837370  0.54008453  0.46121323     0.14900
C5217       C  0.42071461  0.39722916  0.58372014    -0.05100
C5218       C  0.44141000  0.39359766  0.58156029    -0.05000
C5219       C  0.45202044  0.40246920  0.56549899    -0.23200
C5220       C  0.44211659  0.41532391  0.55149080     0.19000
C5221       C  0.42121910  0.41895854  0.55341991     0.16200
C5222       C  0.41056547  0.40966992  0.56944599    -0.18200
C5223       C  0.41155055  0.43227706  0.53964819    -0.20100
C5224       C  0.42266871  0.44264008  0.52474001    -0.12600
C5225       C  0.44356851  0.43950655  0.52303877     0.04100
C5226       C  0.45299715  0.42525206  0.53612919    -0.24800
H5227       H  0.44932426  0.38389821  0.59237827     0.09100
H5228       H  0.46804979  0.39957467  0.56424925     0.12700
H5229       H  0.39454118  0.41239862  0.57111790     0.12700
H5230       H  0.39553619  0.43525031  0.54088408     0.12400
H5231       H  0.41503630  0.45361240  0.51500925     0.13000
H5232       H  0.46913142  0.42277477  0.53525527     0.14900
C5233       C  0.59162255  0.57511619  0.41514296    -0.05100
C5234       C  0.59510655  0.55397815  0.41504400    -0.05000
C5235       C  0.58605469  0.54139926  0.42951416    -0.23200
C5236       C  0.57344761  0.54979327  0.44439559     0.19000
C5237       C  0.57086267  0.57119804  0.44554275     0.16200
C5238       C  0.58007286  0.58378719  0.43089306    -0.18200
C5239       C  0.55822919  0.57941796  0.46061895    -0.20100
C5240       C  0.54701786  0.56644499  0.47329087    -0.12600
C5241       C  0.54843443  0.54517191  0.47104522     0.04100
C5242       C  0.56236083  0.53700001  0.45724169    -0.24800
H5243       H  0.60434274  0.54716092  0.40329933     0.09100
H5244       H  0.58834091  0.52503044  0.42861663     0.12700
H5245       H  0.57760762  0.60015852  0.43116836     0.12700
H5246       H  0.55619238  0.59579648  0.46185614     0.12400
H5247       H  0.53618822  0.57298075  0.48370974     0.13000
H5248       H  0.56344490  0.52054723  0.45547523     0.14900
C5249       C  0.54181631  0.46338509  0.54816351    -0.05100
C5250       C  0.54096321  0.46880637  0.56891895    -0.05000
C5251       C  0.54931881  0.45591438  0.58387574    -0.23200
C5252       C  0.55861542  0.43749262  0.57820741     0.19000
C5253       C  0.56040266  0.43257558  0.55724612     0.16200
C5254       C  0.55218880  0.44560159  0.54245117    -0.18200
C5255       C  0.56975629  0.41434778  0.55136435    -0.20100
C5256       C  0.57723209  0.40096126  0.56613476    -0.12600
C5257       C  0.57533776  0.40546461  0.58702037     0.04100
C5258       C  0.56594011  0.42376464  0.59302326    -0.24800
H5259       H  0.53279839  0.48230280  0.57362952     0.09100
H5260       H  0.54792088  0.46000016  0.59986925     0.12700
H5261       H  0.55295292  0.44135223  0.52642247     0.12700
H5262       H  0.57126208  0.41042859  0.53533560     0.12400
H5263       H  0.58470413  0.38709619  0.56128330     0.13000
H5264       H  0.56459164  0.42733274  0.60915600     0.14900
loop_ 
_geom_bond_atom_site_label_1 
_geom_bond_atom_site_label_2 
_geom_bond_distance 
_geom_bond_site_symmetry_2 
_ccdc_geom_bond_type 
O1           C17   1.276       .  A
O1           Zn7   2.031       .  S
C2           O18   1.278       .  A
C2           O15   1.277       .  A
C2         C5209   1.486       .  S
O3           C16   1.278       .  A
O3          Cd10   2.108       .  S
O4           C22   1.271       .  A
O4          Cd13   2.038       .  S
O5           C19   1.272       .  A
O5           Cd9   2.051       .  S
O6           C17   1.272       .  A
O6           Cd9   2.048       .  S
Zn7          O18   2.036       .  S
Zn7          O20   1.981       .  S
Zn7          O12   1.929       .  S
O8           C19   1.277       .  A
O8          Cd13   2.091       .  S
Cd9          O11   2.021       .  S
Cd9          O12   1.971       .  S
Cd10         O14   2.109       .  S
Cd10         O23   2.095       .  S
Cd10         O12   2.035       .  S
O11          C21   1.269       .  A
O12         Cd13   1.991       .  S
Cd13         O15   2.074       .  S
O14          C21   1.279       .  A
C16          O20   1.271       .  A
C16        C5241   1.473       .  S
C17        C5177   1.480       .  S
C19        C5225   1.487       .  S
C21        C5249   1.474       .  S
C22          O23   1.278       .  A
C22        C5185   1.469       .  S
O24          C40   1.274       .  A
O24         Zn30   2.013       .  S
C25          O41   1.275       .  A
C25          O38   1.275       .  A
C25        C5113   1.475       .  S
O26          C39   1.276       .  A
O26         Cd33   2.095       .  S
O27          C45   1.271       .  A
O27         Cd36   2.027       .  S
O28          C42   1.271       .  A
O28         Cd32   2.057       .  S
O29          C40   1.272       .  A
O29         Cd32   2.044       .  S
Zn30         O41   2.007       .  S
Zn30         O43   1.998       .  S
Zn30         O35   1.928       .  S
O31          C42   1.274       .  A
O31         Cd36   2.077       .  S
Cd32         O34   2.016       .  S
Cd32         O35   1.974       .  S
Cd33         O37   2.081       .  S
Cd33         O46   2.092       .  S
Cd33         O35   2.026       .  S
O34          C44   1.269       .  A
O35         Cd36   1.977       .  S
Cd36         O38   2.050       .  S
O37          C44   1.276       .  A
C39          O43   1.270       .  A
C39        C5161   1.469       .  S
C40        C5073   1.475       .  S
C42        C5129   1.483       .  S
C44        C5137   1.460       .  S
C45          O46   1.276       .  A
C45        C5089   1.467       .  S
C47        C5025   1.485       .  S
C47          N48   1.362       .  A
C47          N52   1.357       .  A
N48          C49   1.364       .  A
C49        C5041   1.489       .  S
C49          N50   1.361       .  A
N50          C51   1.358       .  A
C51        C5057   1.484       .  S
C51          N52   1.356       .  A
C53        C4993   1.477       .  S
C53          N54   1.357       .  A
C53          N58   1.356       .  A
N54          C55   1.359       .  A
C55        C4985   1.483   1_565  S
C55          N56   1.359       .  A
N56          C57   1.360       .  A
C57        C5009   1.480       .  S
C57          N58   1.357       .  A
C59        C4953   1.479   1_556  S
C59          N60   1.351       .  A
C59          N64   1.355       .  A
N60          C61   1.353       .  A
C61        C4929   1.482       .  S
C61          N62   1.363       .  A
N62          C63   1.366       .  A
C63        C4961   1.486       .  S
C63          N64   1.362       .  A
C65        C4889   1.482       .  S
C65          N66   1.353       .  A
C65          N70   1.356       .  A
N66          C67   1.356       .  A
C67        C4897   1.482       .  S
C67          N68   1.364       .  A
N68          C69   1.366       .  A
C69        C4913   1.489       .  S
C69          N70   1.361       .  A
N71          C76   1.355       .  A
N71          C75   1.353       .  A
N71         H103   1.036       .  S
N72          C79   1.351       .  A
N72          C80   1.351       .  A
N73          C78   1.349       .  A
N73          C77   1.352       .  A
N73         H104   1.037       .  S
N74          C81   1.349       .  A
N74          C82   1.349       .  A
C75          C83   1.388       .  A
C75          C91   1.417       .  A
C76          C92   1.418       .  A
C76          C84   1.387       .  A
C77          C85   1.388       .  A
C77          C94   1.413       .  A
C78          C93   1.408       .  A
C78          C86   1.386       .  A
C79          C91   1.413       .  A
C79          C87   1.386       .  A
C80          C94   1.415       .  A
C80          C88   1.386       .  A
C81          C89   1.386       .  A
C81          C92   1.411       .  A
C82          C90   1.386       .  A
C82          C93   1.409       .  A
C83          C84   1.373       .  A
C83          H95   1.082       .  S
C84          H96   1.082       .  S
C85          C86   1.372       .  A
C85          H97   1.082       .  S
C86          H98   1.082       .  S
C87          C88   1.374       .  A
C87          H99   1.082       .  S
C88         H100   1.082       .  S
C89          C90   1.373       .  A
C89         H101   1.082       .  S
C90         H102   1.082       .  S
C91        C4969   1.481       .  S
C92        C4905   1.486       .  S
C93        C4849   1.472       .  S
C94        C4865   1.484       .  S
N105        C110   1.353       .  A
N105        C109   1.352       .  A
N105        H137   1.035       .  S
N106        C113   1.350       .  A
N106        C114   1.351       .  A
N107        C112   1.351       .  A
N107        C111   1.351       .  A
N107        H138   1.036       .  S
N108        C115   1.350       .  A
N108        C116   1.349       .  A
C109        C117   1.388       .  A
C109        C125   1.414       .  A
C110        C126   1.414       .  A
C110        C118   1.388       .  A
C111        C119   1.386       .  A
C111        C128   1.410       .  A
C112        C127   1.411       .  A
C112        C120   1.388       .  A
C113        C125   1.411       .  A
C113        C121   1.387       .  A
C114        C128   1.412       .  A
C114        C122   1.386       .  A
C115        C123   1.385       .  A
C115        C126   1.409       .  A
C116        C124   1.388       .  A
C116        C127   1.413       .  A
C117        C118   1.372       .  A
C117        H129   1.082       .  S
C118        H130   1.082       .  S
C119        C120   1.370       .  A
C119        H131   1.082       .  S
C120        H132   1.082       .  S
C121        C122   1.373       .  A
C121        H133   1.082       .  S
C122        H134   1.082       .  S
C123        C124   1.372       .  A
C123        H135   1.082       .  S
C124        H136   1.082       .  S
C125       C4945   1.475       .  S
C126       C5017   1.477       .  S
C127       C4817   1.476       .  S
C128       C4841   1.477       .  S
N139        C144   1.353       .  A
N139        C143   1.351       .  A
N139        H171   1.034       .  S
N140        C147   1.352       .  A
N140        C148   1.352       .  A
N141        C146   1.351       .  A
N141        C145   1.353       .  A
N141        H172   1.037       .  S
N142        C149   1.351       .  A
N142        C150   1.349       .  A
C143        C151   1.387       .  A
C143        C159   1.415       .  A
C144        C160   1.416       .  A
C144        C152   1.388       .  A
C145        C153   1.387       .  A
C145        C162   1.415       .  A
C146        C161   1.412       .  A
C146        C154   1.387       .  A
C147        C159   1.413       .  A
C147        C155   1.385       .  A
C148        C162   1.418       .  A
C148        C156   1.387       .  A
C149        C157   1.386       .  A
C149        C160   1.411       .  A
C150        C158   1.387       .  A
C150        C161   1.412       .  A
C151        C152   1.374       .  A
C151        H163   1.082       .  S
C152        H164   1.082       .  S
C153        C154   1.373       .  A
C153        H165   1.082       .  S
C154        H166   1.082       .  S
C155        C156   1.373       .  A
C155        H167   1.082       .  S
C156        H168   1.082       .  S
C157        C158   1.372       .  A
C157        H169   1.082       .  S
C158        H170   1.082       .  S
C159       C5065   1.480       .  S
C160       C4881   1.481       .  S
C161       C4785   1.476       .  S
C162       C4801   1.491       .  S
N173        C178   1.353       .  A
N173        C177   1.353       .  A
N173        H205   1.037       .  S
N174        C181   1.353       .  A
N174        C182   1.350       .  A
N175        C180   1.353       .  A
N175        C179   1.353       .  A
N175        H206   1.037       .  S
N176        C183   1.351       .  A
N176        C184   1.352       .  A
C177        C185   1.387       .  A
C177        C193   1.414       .  A
C178        C194   1.415       .  A
C178        C186   1.388       .  A
C179        C187   1.388       .  A
C179        C196   1.416       .  A
C180        C195   1.414       .  A
C180        C188   1.386       .  A
C181        C193   1.411       .  A
C181        C189   1.385       .  A
C182        C196   1.416       .  A
C182        C190   1.388       .  A
C183        C191   1.385       .  A
C183        C194   1.412       .  A
C184        C192   1.387       .  A
C184        C195   1.415       .  A
C185        C186   1.375       .  A
C185        H197   1.082       .  S
C186        H198   1.082       .  S
C187        C188   1.375       .  A
C187        H199   1.082       .  S
C188        H200   1.082       .  S
C189        C190   1.372       .  A
C189        H201   1.082       .  S
C190        H202   1.082       .  S
C191        C192   1.372       .  A
C191        H203   1.083       .  S
C192        H204   1.082       .  S
C193       C5033   1.484       .  S
C194       C4937   1.483       .  S
C195       C4769   1.486       .  S
C196       C4753   1.486       .  S
N207        C212   1.352       .  A
N207        C211   1.355       .  A
N207        H239   1.034       .  S
N208        C215   1.354       .  A
N208        C216   1.351       .  A
N209        C214   1.355       .  A
N209        C213   1.351       .  A
N209        H240   1.037       .  S
N210        C217   1.351       .  A
N210        C218   1.354       .  A
C211        C219   1.387       .  A
C211        C227   1.416       .  A
C212        C228   1.416       .  A
C212        C220   1.388       .  A
C213        C221   1.387       .  A
C213        C230   1.413       .  A
C214        C229   1.415       .  A
C214        C222   1.387       .  A
C215        C227   1.415       .  A
C215        C223   1.385       .  A
C216        C230   1.416       .  A
C216        C224   1.388       .  A
C217        C225   1.386       .  A
C217        C228   1.415       .  A
C218        C226   1.386       .  A
C218        C229   1.417       .  A
C219        C220   1.371       .  A
C219        H231   1.082       .  S
C220        H232   1.082       .  S
C221        C222   1.372       .  A
C221        H233   1.082       .  S
C222        H234   1.082       .  S
C223        C224   1.375       .  A
C223        H235   1.082       .  S
C224        H236   1.082       .  S
C225        C226   1.374       .  A
C225        H237   1.082       .  S
C226        H238   1.082       .  S
C227       C5049   1.487       .  S
C228       C5001   1.480       .  S
C229       C4721   1.494       .  S
C230       C4737   1.478       .  S
N241        C246   1.353       .  A
N241        C245   1.355       .  A
N241        H273   1.034       .  S
N242        C249   1.352       .  A
N242        C250   1.350       .  A
N243        C248   1.355       .  A
N243        C247   1.352       .  A
N243        H274   1.033       .  S
N244        C251   1.352       .  A
N244        C252   1.353       .  A
C245        C253   1.386       .  A
C245        C261   1.416       .  A
C246        C262   1.419       .  A
C246        C254   1.390       .  A
C247        C255   1.388       .  A
C247        C264   1.417       .  A
C248        C263   1.417       .  A
C248        C256   1.387       .  A
C249        C261   1.413       .  A
C249        C257   1.385       .  A
C250        C264   1.415       .  A
C250        C258   1.387       .  A
C251        C259   1.387       .  A
C251        C262   1.416       .  A
C252        C260   1.386       .  A
C252        C263   1.418       .  A
C253        C254   1.373       .  A
C253        H265   1.082       .  S
C254        H266   1.082       .  S
C255        C256   1.373       .  A
C255        H267   1.082       .  S
C256        H268   1.081       .  S
C257        C258   1.373       .  A
C257        H269   1.082       .  S
C258        H270   1.082       .  S
C259        C260   1.374       .  A
C259        H271   1.082       .  S
C260        H272   1.082       .  S
C261       C4921   1.487       .  S
C262       C4977   1.482       .  S
C263       C4705   1.490       .  S
C264       C4689   1.480       .  S
O275        C291   1.275       .  A
O275       Zn281   2.030       .  S
C276        O292   1.274       .  A
C276        O289   1.274       .  A
C276       C4657   1.480       .  S
O277        C290   1.277       .  A
O277       Cd284   2.096       .  S
O278        C296   1.272       .  A
O278       Cd287   2.039       .  S
O279        C293   1.271       .  A
O279       Cd283   2.037       .  S
O280        C291   1.270       .  A
O280       Cd283   2.039       .  S
Zn281       O292   2.010       .  S
Zn281       O294   1.984       .  S
Zn281       O286   1.933       .  S
O282        C293   1.276       .  A
O282       Cd287   2.083       .  S
Cd283       O285   2.032       .  S
Cd283       O286   1.972       .  S
Cd284       O288   2.098       .  S
Cd284       O297   2.111       .  S
Cd284       O286   2.030       .  S
O285        C295   1.269       .  A
O286       Cd287   1.993       .  S
Cd287       O289   2.063       .  S
O288        C295   1.277       .  A
C290        O294   1.271       .  A
C290       C4625   1.472       .  S
C291       C4609   1.478       .  S
C293       C4593   1.479       .  S
C295       C4681   1.464       .  S
C296        O297   1.280       .  A
C296       C4641   1.474       .  S
O298        C314   1.273       .  A
O298       Zn304   2.015       .  S
C299        O315   1.274       .  A
C299        O312   1.276       .  A
C299       C4497   1.472       .  S
O300        C313   1.279       .  A
O300       Cd307   2.106       .  S
O301        C319   1.271       .  A
O301       Cd310   2.048       .  S
O302        C316   1.275       .  A
O302       Cd306   2.072       .  S
O303        C314   1.274       .  A
O303       Cd306   2.067       .  S
Zn304       O315   2.003       .  S
Zn304       O317   1.996       .  S
Zn304       O309   1.933       .  S
O305        C316   1.274       .  A
O305       Cd310   2.066       .  S
Cd306       O308   2.031       .  S
Cd306       O309   1.983       .  S
Cd307       O311   2.099       .  S
Cd307       O320   2.109       .  S
Cd307       O309   2.025       .  S
O308        C318   1.272       .  A
O309       Cd310   1.984       .  S
Cd310       O312   2.062       .  S
O311        C318   1.279       .  A
C313        O317   1.271       .  A
C313       C4561   1.481       .  S
C314       C4521   1.484       .  S
C316       C4585   1.478       .  S
C318       C4529   1.467       .  S
C319        O320   1.279       .  A
C319       C4553   1.477       .  S
O321        C337   1.275       .  A
O321       Zn327   2.033       .  S
C322        O338   1.277       .  A
C322        O335   1.271       .  A
C322       C4457   1.479       .  S
O323        C336   1.278       .  A
O323       Cd330   2.097       .  S
O324        C342   1.271       .  A
O324       Cd333   2.042       .  S
O325        C339   1.273       .  A
O325       Cd329   2.065       .  S
O326        C337   1.271       .  A
O326       Cd329   2.043       .  S
Zn327       O338   2.034       .  S
Zn327       O340   2.001       .  S
Zn327       O332   1.937       .  S
O328        C339   1.273       .  A
O328       Cd333   2.049       .  S
Cd329       O331   2.033       .  S
Cd329       O332   1.982       .  S
Cd330       O334   2.092       .  S
Cd330       O343   2.104       .  S
Cd330       O332   2.025       .  S
O331        C341   1.271       .  A
O332       Cd333   1.974       .  S
Cd333       O335   2.038       .  S
O334        C341   1.277       .  A
C336        O340   1.273       .  A
C336       C4473   1.473       .  S
C337       C4745   1.476       .  S
C339       C4433   1.474       .  S
C341       C4489   1.465       .  S
C342        O343   1.278       .  A
C342       C4425   1.476       .  S
O344        C360   1.273       .  A
O344       Zn350   2.012       .  S
C345        O361   1.272       .  A
C345        O358   1.271       .  A
C345       C4337   1.473       .  S
O346        C359   1.278       .  A
O346       Cd353   2.099       .  S
O347        C365   1.270       .  A
O347       Cd356   2.025       .  S
O348        C362   1.274       .  A
O348       Cd352   2.063   1_554  S
O349        C360   1.272       .  A
O349       Cd352   2.048       .  S
Zn350       O361   1.995   1_556  S
Zn350       O363   1.971       .  S
Zn350       O355   1.919   1_556  S
O351        C362   1.271       .  A
O351       Cd356   2.041       .  S
Cd352       O354   2.029       .  S
Cd352       O355   1.975   1_556  S
Cd353       O357   2.094       .  S
Cd353       O366   2.095   1_556  S
Cd353       O355   2.029   1_556  S
O354        C364   1.271       .  A
O355       Cd356   1.974       .  S
Cd356       O358   2.050       .  S
O357        C364   1.277       .  A
C359        O363   1.270       .  A
C359       C4873   1.470       .  S
C360       C4353   1.471       .  S
C362       C4393   1.474       .  S
C364       C4369   1.467       .  S
C365        O366   1.277       .  A
C365       C4401   1.469       .  S
O367        C383   1.277       .  A
O367       Zn373   2.031   1_455  S
C368        O384   1.277       .  A
C368        O381   1.272       .  A
C368       C4297   1.483       .  S
O369        C382   1.278       .  A
O369       Cd376   2.104   1_554  S
O370        C388   1.271       .  A
O370       Cd379   2.035       .  S
O371        C385   1.274       .  A
O371       Cd375   2.071       .  S
O372        C383   1.273       .  A
O372       Cd375   2.047   1_554  S
Zn373       O384   2.041       .  S
Zn373       O386   1.973       .  S
Zn373       O378   1.935   1_655  S
O374        C385   1.273       .  A
O374       Cd379   2.056   1_455  S
Cd375       O377   2.026       .  S
Cd375       O378   1.974   1_556  S
Cd376       O380   2.114       .  S
Cd376       O389   2.101       .  S
Cd376       O378   2.033   1_656  S
O377        C387   1.270       .  A
O378       Cd379   1.971   1_454  S
Cd379       O381   2.048   1_556  S
O380        C387   1.279   1_655  A
C382        O386   1.270       .  A
C382       C4329   1.474       .  S
C383       C4265   1.482       .  S
C385       C4281   1.477       .  S
C387       C4305   1.471       .  S
C388        O389   1.279       .  A
C388       C4777   1.473       .  S
O390        C406   1.276       .  A
O390       Zn396   2.034       .  S
C391        O407   1.277       .  A
C391        O404   1.273       .  A
C391       C4233   1.477       .  S
O392        C405   1.277       .  A
O392       Cd399   2.081       .  S
O393        C411   1.271       .  A
O393       Cd402   2.036       .  S
O394        C408   1.270       .  A
O394       Cd398   2.034   1_565  S
O395        C406   1.270       .  A
O395       Cd398   2.037       .  S
Zn396       O407   2.038   1_545  S
Zn396       O409   1.991       .  S
Zn396       O401   1.939   1_545  S
O397        C408   1.274       .  A
O397       Cd402   2.064       .  S
Cd398       O400   2.025       .  S
Cd398       O401   1.969   1_545  S
Cd399       O403   2.092       .  S
Cd399       O412   2.107   1_545  S
Cd399       O401   2.025   1_545  S
O400        C410   1.269       .  A
O401       Cd402   1.975       .  S
Cd402       O404   2.044       .  S
O403        C410   1.276       .  A
C405        O409   1.273       .  A
C405       C4209   1.469       .  S
C406       C4241   1.480       .  S
C408       C4857   1.473       .  S
C410       C4177   1.459       .  S
C411        O412   1.278       .  A
C411       C4201   1.476       .  S
O413        C429   1.274       .  A
O413       Zn419   2.023       .  S
C414        O430   1.275       .  A
C414        O427   1.273       .  A
C414       C4137   1.482       .  S
O415        C428   1.278       .  A
O415       Cd422   2.095       .  S
O416        C434   1.270       .  A
O416       Cd425   2.028       .  S
O417        C431   1.273       .  A
O417       Cd421   2.065       .  S
O418        C429   1.272       .  A
O418       Cd421   2.041       .  S
Zn419       O430   2.023       .  S
Zn419       O432   1.990       .  S
Zn419       O424   1.941       .  S
O420        C431   1.272       .  A
O420       Cd425   2.047       .  S
Cd421       O423   2.042       .  S
Cd421       O424   1.980       .  S
Cd422       O426   2.117       .  S
Cd422       O435   2.100       .  S
Cd422       O424   2.030       .  S
O423        C433   1.271       .  A
O424       Cd425   1.978       .  S
Cd425       O427   2.059       .  S
O426        C433   1.280       .  A
C428        O432   1.272       .  A
C428       C4113   1.470       .  S
C429       C4153   1.477       .  S
C431       C4161   1.475       .  S
C433       C4097   1.478       .  S
C434        O435   1.277       .  A
C434       C4809   1.474       .  S
O436        C452   1.273       .  A
O436       Zn442   2.004       .  S
C437        O453   1.275       .  A
C437        O450   1.271       .  A
C437       C4033   1.477       .  S
O438        C451   1.278       .  A
O438       Cd445   2.108       .  S
O439        C457   1.271       .  A
O439       Cd448   2.030       .  S
O440        C454   1.273       .  A
O440       Cd444   2.068   1_655  S
O441        C452   1.275       .  A
O441       Cd444   2.068       .  S
Zn442       O453   2.027   1_455  S
Zn442       O455   1.979       .  S
Zn442       O447   1.933   1_455  S
O443        C454   1.272       .  A
O443       Cd448   2.056       .  S
Cd444       O446   2.044       .  S
Cd444       O447   1.988   1_455  S
Cd445       O449   2.095       .  S
Cd445       O458   2.106   1_455  S
Cd445       O447   2.031   1_455  S
O446        C456   1.273       .  A
O447       Cd448   1.975       .  S
Cd448       O450   2.037       .  S
O449        C456   1.278       .  A
C451        O455   1.270       .  A
C451       C4089   1.472       .  S
C452       C4073   1.474       .  S
C454       C4833   1.477       .  S
C456       C4017   1.474       .  S
C457        O458   1.279       .  A
C457       C4049   1.474       .  S
O459        C475   1.276       .  A
O459       Zn465   2.022       .  S
C460        O476   1.277       .  A
C460        O473   1.273       .  A
C460       C3969   1.485       .  S
O461        C474   1.280       .  A
O461       Cd468   2.117       .  S
O462        C480   1.270       .  A
O462       Cd471   2.032   1_565  S
O463        C477   1.274       .  A
O463       Cd467   2.069   1_554  S
O464        C475   1.275       .  A
O464       Cd467   2.064       .  S
Zn465       O476   2.042   1_546  S
Zn465       O478   1.987   1_545  S
Zn465       O470   1.941       .  S
O466        C477   1.274       .  A
O466       Cd471   2.070       .  S
Cd467       O469   2.033       .  S
Cd467       O470   1.987       .  S
Cd468       O472   2.106   1_565  S
Cd468       O481   2.114       .  S
Cd468       O470   2.038   1_565  S
O469        C479   1.271       .  A
O470       Cd471   1.980   1_556  S
Cd471       O473   2.049   1_545  S
O472        C479   1.279       .  A
C474        O478   1.271       .  A
C474       C4729   1.480       .  S
C475       C3953   1.482       .  S
C477       C3945   1.485       .  S
C479       C4001   1.470       .  S
C480        O481   1.279   1_554  A
C480       C3993   1.474       .  S
C482       C3905   1.486       .  S
C482        N483   1.361       .  A
C482        N487   1.357       .  A
N483        C484   1.362       .  A
C484       C3897   1.483       .  S
C484        N485   1.360       .  A
N485        C486   1.357       .  A
C486       C3921   1.483       .  S
C486        N487   1.356       .  A
N488        C493   1.355       .  A
N488        C492   1.354       .  A
N488        H520   1.036       .  S
N489        C496   1.352       .  A
N489        C497   1.353       .  A
N490        C495   1.354       .  A
N490        C494   1.356       .  A
N490        H521   1.037       .  S
N491        C498   1.355       .  A
N491        C499   1.353       .  A
C492        C500   1.387       .  A
C492        C508   1.417       .  A
C493        C509   1.419       .  A
C493        C501   1.388       .  A
C494        C502   1.388       .  A
C494        C511   1.419       .  A
C495        C510   1.416       .  A
C495        C503   1.387       .  A
C496        C508   1.413       .  A
C496        C504   1.386       .  A
C497        C511   1.418       .  A
C497        C505   1.387       .  A
C498        C506   1.386       .  A
C498        C509   1.418       .  A
C499        C507   1.386       .  A
C499        C510   1.416       .  A
C500        C501   1.375       .  A
C500        H512   1.082       .  S
C501        H513   1.082       .  S
C502        C503   1.374       .  A
C502        H514   1.082       .  S
C503        H515   1.082       .  S
C504        C505   1.373       .  A
C504        H516   1.082       .  S
C505        H517   1.082       .  S
C506        C507   1.374       .  A
C506        H518   1.082       .  S
C507        H519   1.082       .  S
C508       C3913   1.484       .  S
C509       C3873   1.493       .  S
C510       C5201   1.485       .  S
C511       C4633   1.496       .  S
C522       C3833   1.481       .  S
C522        N523   1.357       .  A
C522        N527   1.355       .  A
N523        C524   1.361       .  A
C524       C3857   1.485   1_565  S
C524        N525   1.363       .  A
N525        C526   1.362       .  A
C526       C3841   1.485       .  S
C526        N527   1.357       .  A
N528        C533   1.353       .  A
N528        C532   1.355       .  A
N528        H560   1.035       .  S
N529        C536   1.353       .  A
N529        C537   1.352       .  A
N530        C535   1.354       .  A
N530        C534   1.354       .  A
N530        H561   1.036       .  S
N531        C538   1.352       .  A
N531        C539   1.353       .  A
C532        C540   1.386       .  A
C532        C548   1.417       .  A
C533        C549   1.419       .  A
C533        C541   1.389       .  A
C534        C542   1.387       .  A
C534        C551   1.418       .  A
C535        C550   1.417       .  A
C535        C543   1.388       .  A
C536        C548   1.414       .  A
C536        C544   1.385       .  A
C537        C551   1.417       .  A
C537        C545   1.387       .  A
C538        C546   1.386       .  A
C538        C549   1.416       .  A
C539        C547   1.387       .  A
C539        C550   1.416       .  A
C540        C541   1.376       .  A
C540        H552   1.082       .  S
C541        H553   1.082       .  S
C542        C543   1.371       .  A
C542        H554   1.082       .  S
C543        H555   1.082       .  S
C544        C545   1.371       .  A
C544        H556   1.082       .  S
C545        H557   1.082       .  S
C546        C547   1.374       .  A
C546        H558   1.082       .  S
C547        H559   1.082       .  S
C548       C3809   1.490       .  S
C549       C3825   1.483       .  S
C550       C3793   1.485       .  S
C551       C4121   1.492       .  S
N562        C567   1.351       .  A
N562        C566   1.352       .  A
N562        H594   1.036       .  S
N563        C570   1.352       .  A
N563        C571   1.350       .  A
N564        C569   1.353       .  A
N564        C568   1.352       .  A
N564        H595   1.038       .  S
N565        C572   1.352       .  A
N565        C573   1.351       .  A
C566        C574   1.387       .  A
C566        C582   1.413       .  A
C567        C583   1.414       .  A
C567        C575   1.388       .  A
C568        C576   1.387       .  A
C568        C585   1.415       .  A
C569        C584   1.414       .  A
C569        C577   1.387       .  A
C570        C582   1.411       .  A
C570        C578   1.385       .  A
C571        C585   1.415       .  A
C571        C579   1.388       .  A
C572        C580   1.386       .  A
C572        C583   1.413       .  A
C573        C581   1.387       .  A
C573        C584   1.415       .  A
C574        C575   1.376       .  A
C574        H586   1.082       .  S
C575        H587   1.082       .  S
C576        C577   1.375       .  A
C576        H588   1.082       .  S
C577        H589   1.082       .  S
C578        C579   1.372       .  A
C578        H590   1.082       .  S
C579        H591   1.082       .  S
C580        C581   1.372       .  A
C580        H592   1.082       .  S
C581        H593   1.082       .  S
C582       C3929   1.480       .  S
C583       C3849   1.481       .  S
C584       C3985   1.486       .  S
C585       C4409   1.486       .  S
C596       C3785   1.484       .  S
C596        N597   1.360       .  A
C596        N601   1.360       .  A
N597        C598   1.359       .  A
C598       C3745   1.483       .  S
C598        N599   1.358       .  A
N599        C600   1.359       .  A
C600       C3761   1.485   1_565  S
C600        N601   1.359       .  A
C602       C3729   1.489       .  S
C602        N603   1.362       .  A
C602        N607   1.360       .  A
N603        C604   1.362       .  A
C604       C3881   1.490       .  S
C604        N605   1.363       .  A
N605        C606   1.361       .  A
C606       C3817   1.489       .  S
C606        N607   1.360       .  A
N608        C613   1.354       .  A
N608        C612   1.355       .  A
N608        H640   1.034       .  S
N609        C616   1.352       .  A
N609        C617   1.350       .  A
N610        C615   1.351       .  A
N610        C614   1.350       .  A
N610        H641   1.036       .  S
N611        C618   1.350       .  A
N611        C619   1.352       .  A
C612        C620   1.386       .  A
C612        C628   1.418       .  A
C613        C629   1.419       .  A
C613        C621   1.388       .  A
C614        C622   1.388       .  A
C614        C631   1.410       .  A
C615        C630   1.409       .  A
C615        C623   1.386       .  A
C616        C628   1.414       .  A
C616        C624   1.386       .  A
C617        C631   1.412       .  A
C617        C625   1.386       .  A
C618        C626   1.387       .  A
C618        C629   1.414       .  A
C619        C627   1.386       .  A
C619        C630   1.413       .  A
C620        C621   1.375       .  A
C620        H632   1.082       .  S
C621        H633   1.082       .  S
C622        C623   1.372       .  A
C622        H634   1.082       .  S
C623        H635   1.083       .  S
C624        C625   1.374       .  A
C624        H636   1.082       .  S
C625        H637   1.082       .  S
C626        C627   1.373       .  A
C626        H638   1.082       .  S
C627        H639   1.082       .  S
C628       C3737   1.488       .  S
C629       C3753   1.482       .  S
C630       C4225   1.482       .  S
C631       C4441   1.473       .  S
N642        C647   1.353       .  A
N642        C646   1.353       .  A
N642        H674   1.037       .  S
N643        C650   1.352       .  A
N643        C651   1.352       .  A
N644        C649   1.354       .  A
N644        C648   1.355       .  A
N644        H675   1.037       .  S
N645        C652   1.353       .  A
N645        C653   1.353       .  A
C646        C654   1.387       .  A
C646        C662   1.414       .  A
C647        C663   1.415       .  A
C647        C655   1.388       .  A
C648        C656   1.387       .  A
C648        C665   1.420       .  A
C649        C664   1.417       .  A
C649        C657   1.386       .  A
C650        C662   1.412       .  A
C650        C658   1.385       .  A
C651        C665   1.417       .  A
C651        C659   1.387       .  A
C652        C660   1.385       .  A
C652        C663   1.414       .  A
C653        C661   1.388       .  A
C653        C664   1.417       .  A
C654        C655   1.374       .  A
C654        H666   1.082       .  S
C655        H667   1.082       .  S
C656        C657   1.376       .  A
C656        H668   1.082       .  S
C657        H669   1.082       .  S
C658        C659   1.373       .  A
C658        H670   1.082       .  S
C659        H671   1.082       .  S
C660        C661   1.373       .  A
C660        H672   1.082       .  S
C661        H673   1.082       .  S
C662       C3769   1.482       .  S
C663       C3865   1.484       .  S
C664       C5153   1.487       .  S
C665       C4569   1.494       .  S
N676        C681   1.353       .  A
N676        C680   1.352       .  A
N676        H708   1.036       .  S
N677        C684   1.352       .  A
N677        C685   1.351       .  A
N678        C683   1.352       .  A
N678        C682   1.352       .  A
N678        H709   1.036       .  S
N679        C686   1.351       .  A
N679        C687   1.350       .  A
C680        C688   1.387       .  A
C680        C696   1.415       .  A
C681        C697   1.415       .  A
C681        C689   1.387       .  A
C682        C690   1.387       .  A
C682        C699   1.413       .  A
C683        C698   1.413       .  A
C683        C691   1.388       .  A
C684        C696   1.412       .  A
C684        C692   1.385       .  A
C685        C699   1.414       .  A
C685        C693   1.387       .  A
C686        C694   1.386       .  A
C686        C697   1.412       .  A
C687        C695   1.387       .  A
C687        C698   1.412       .  A
C688        C689   1.374       .  A
C688        H700   1.082       .  S
C689        H701   1.082       .  S
C690        C691   1.374       .  A
C690        H702   1.082       .  S
C691        H703   1.082       .  S
C692        C693   1.373       .  A
C692        H704   1.082       .  S
C693        H705   1.082       .  S
C694        C695   1.374       .  A
C694        H706   1.082       .  S
C695        H707   1.082       .  S
C696       C3889   1.482       .  S
C697       C3777   1.483       .  S
C698       C3713   1.479       .  S
C699       C4065   1.482       .  S
O710        C726   1.273       .  A
O710       Zn716   2.000   1_545  S
C711        O727   1.273       .  A
C711        O724   1.274       .  A
C711       C3689   1.475       .  S
O712        C725   1.276       .  A
O712       Cd719   2.096       .  S
O713        C731   1.270       .  A
O713       Cd722   2.022   1_565  S
O714        C728   1.275       .  A
O714       Cd718   2.080       .  S
O715        C726   1.274       .  A
O715       Cd718   2.049       .  S
Zn716       O727   2.009       .  S
Zn716       O729   1.975       .  S
Zn716       O721   1.922   1_565  S
O717        C728   1.272       .  A
O717       Cd722   2.054       .  S
Cd718       O720   2.052       .  S
Cd718       O721   1.986       .  S
Cd719       O723   2.087   1_565  S
Cd719       O732   2.082       .  S
Cd719       O721   2.024   1_565  S
O720        C730   1.273       .  A
O721       Cd722   1.976       .  S
Cd722       O724   2.065   1_545  S
O723        C730   1.277       .  A
C725        O729   1.268       .  A
C725       C3801   1.464       .  S
C726       C3673   1.468       .  S
C728       C3649   1.479       .  S
C730       C3705   1.475       .  S
C731        O732   1.276       .  A
C731       C4825   1.461       .  S
O733        C749   1.274       .  A
O733       Zn739   2.007       .  S
C734        O750   1.274       .  A
C734        O747   1.276       .  A
C734       C3641   1.480       .  S
O735        C748   1.273       .  A
O735       Cd742   2.072       .  S
O736        C754   1.272       .  A
O736       Cd745   2.046       .  S
O737        C751   1.278       .  A
O737       Cd741   2.081       .  S
O738        C749   1.279       .  A
O738       Cd741   2.096       .  S
Zn739       O750   2.005   1_556  S
Zn739       O752   1.985   1_556  S
Zn739       O744   1.920       .  S
O740        C751   1.276       .  A
O740       Cd745   2.071   1_556  S
Cd741       O743   2.041       .  S
Cd741       O744   1.988       .  S
Cd742       O746   2.075   1_554  S
Cd742       O755   2.081       .  S
Cd742       O744   2.017   1_554  S
O743        C753   1.272       .  A
O744       Cd745   1.978   1_556  S
Cd745       O747   2.067       .  S
O746        C753   1.275       .  A
C748        O752   1.271       .  A
C748       C3569   1.465       .  S
C749       C4713   1.489       .  S
C751       C3617   1.488       .  S
C753       C3593   1.465       .  S
C754        O755   1.275       .  A
C754       C3609   1.476       .  S
C756       C3521   1.486       .  S
C756        N757   1.359       .  A
C756        N761   1.363       .  A
N757        C758   1.357       .  A
C758       C3553   1.484       .  S
C758        N759   1.356       .  A
N759        C760   1.359       .  A
C760       C3537   1.487       .  S
C760        N761   1.362       .  A
C762       C3473   1.477       .  S
C762        N763   1.353       .  A
C762        N767   1.358       .  A
N763        C764   1.355       .  A
C764       C3505   1.480       .  S
C764        N765   1.360       .  A
N765        C766   1.364       .  A
C766       C3489   1.481       .  S
C766        N767   1.363       .  A
C768       C3457   1.483       .  S
C768        N769   1.354       .  A
C768        N773   1.355       .  A
N769        C770   1.358       .  A
C770       C3441   1.489       .  S
C770        N771   1.366       .  A
N771        C772   1.366       .  A
C772       C3425   1.490       .  S
C772        N773   1.359       .  A
C774       C3393   1.481       .  S
C774        N775   1.359       .  A
C774        N779   1.363       .  A
N775        C776   1.355       .  A
C776       C3409   1.473   1_556  S
C776        N777   1.354       .  A
N777        C778   1.356       .  A
C778       C3377   1.484       .  S
C778        N779   1.362       .  A
N780        C785   1.353       .  A
N780        C784   1.352       .  A
N780        H812   1.037       .  S
N781        C788   1.353       .  A
N781        C789   1.351       .  A
N782        C787   1.353       .  A
N782        C786   1.352       .  A
N782        H813   1.038       .  S
N783        C790   1.350       .  A
N783        C791   1.349       .  A
C784        C792   1.388       .  A
C784        C800   1.415       .  A
C785        C801   1.414       .  A
C785        C793   1.386       .  A
C786        C794   1.388       .  A
C786        C803   1.414       .  A
C787        C802   1.413       .  A
C787        C795   1.386       .  A
C788        C800   1.414       .  A
C788        C796   1.385       .  A
C789        C803   1.415       .  A
C789        C797   1.387       .  A
C790        C798   1.386       .  A
C790        C801   1.409       .  A
C791        C799   1.387       .  A
C791        C802   1.412       .  A
C792        C793   1.376       .  A
C792        H804   1.082       .  S
C793        H805   1.082       .  S
C794        C795   1.373       .  A
C794        H806   1.081       .  S
C795        H807   1.082       .  S
C796        C797   1.374       .  A
C796        H808   1.082       .  S
C797        H809   1.082       .  S
C798        C799   1.372       .  A
C798        H810   1.082       .  S
C799        H811   1.082       .  S
C800       C3449   1.485       .  S
C801       C3385   1.479       .  S
C802       C4377   1.485       .  S
C803       C4449   1.480       .  S
N814        C819   1.353       .  A
N814        C818   1.354       .  A
N814        H846   1.037       .  S
N815        C822   1.353       .  A
N815        C823   1.352       .  A
N816        C821   1.353       .  A
N816        C820   1.354       .  A
N816        H847   1.037       .  S
N817        C824   1.352       .  A
N817        C825   1.353       .  A
C818        C826   1.387       .  A
C818        C834   1.415       .  A
C819        C835   1.418       .  A
C819        C827   1.388       .  A
C820        C828   1.388       .  A
C820        C837   1.419       .  A
C821        C836   1.415       .  A
C821        C829   1.386       .  A
C822        C834   1.413       .  A
C822        C830   1.385       .  A
C823        C837   1.419       .  A
C823        C831   1.388       .  A
C824        C832   1.386       .  A
C824        C835   1.415       .  A
C825        C833   1.386       .  A
C825        C836   1.415       .  A
C826        C827   1.373       .  A
C826        H838   1.082       .  S
C827        H839   1.082       .  S
C828        C829   1.377       .  A
C828        H840   1.082       .  S
C829        H841   1.082       .  S
C830        C831   1.373       .  A
C830        H842   1.082       .  S
C831        H843   1.082       .  S
C832        C833   1.374       .  A
C832        H844   1.082       .  S
C833        H845   1.082       .  S
C834       C3433   1.488       .  S
C835       C3481   1.489       .  S
C836       C3625   1.486       .  S
C837       C3369   1.494       .  S
N848        C853   1.352       .  A
N848        C852   1.354       .  A
N848        H880   1.034       .  S
N849        C856   1.353       .  A
N849        C857   1.351       .  A
N850        C855   1.353       .  A
N850        C854   1.352       .  A
N850        H881   1.038       .  S
N851        C858   1.351       .  A
N851        C859   1.352       .  A
C852        C860   1.386       .  A
C852        C868   1.416       .  A
C853        C869   1.419       .  A
C853        C861   1.389       .  A
C854        C862   1.387       .  A
C854        C871   1.414       .  A
C855        C870   1.412       .  A
C855        C863   1.386       .  A
C856        C868   1.413       .  A
C856        C864   1.385       .  A
C857        C871   1.416       .  A
C857        C865   1.388       .  A
C858        C866   1.387       .  A
C858        C869   1.415       .  A
C859        C867   1.385       .  A
C859        C870   1.414       .  A
C860        C861   1.375       .  A
C860        H872   1.082       .  S
C861        H873   1.082       .  S
C862        C863   1.374       .  A
C862        H874   1.082       .  S
C863        H875   1.082       .  S
C864        C865   1.372       .  A
C864        H876   1.082       .  S
C865        H877   1.082       .  S
C866        C867   1.373       .  A
C866        H878   1.082       .  S
C867        H879   1.082       .  S
C868       C3545   1.487       .  S
C869       C3465   1.480       .  S
C870       C5217   1.486       .  S
C871       C4537   1.487       .  S
N882        C887   1.351       .  A
N882        C886   1.352       .  A
N882        H914   1.035       .  S
N883        C890   1.352       .  A
N883        C891   1.349       .  A
N884        C889   1.353       .  A
N884        C888   1.350       .  A
N884        H915   1.036       .  S
N885        C892   1.350       .  A
N885        C893   1.352       .  A
C886        C894   1.385       .  A
C886        C902   1.412       .  A
C887        C903   1.415       .  A
C887        C895   1.389       .  A
C888        C896   1.389       .  A
C888        C905   1.416       .  A
C889        C904   1.412       .  A
C889        C897   1.386       .  A
C890        C902   1.411       .  A
C890        C898   1.385       .  A
C891        C905   1.413       .  A
C891        C899   1.388       .  A
C892        C900   1.386       .  A
C892        C903   1.412       .  A
C893        C901   1.387       .  A
C893        C904   1.415       .  A
C894        C895   1.376       .  A
C894        H906   1.082       .  S
C895        H907   1.082       .  S
C896        C897   1.371       .  A
C896        H908   1.082       .  S
C897        H909   1.080       .  S
C898        C899   1.371       .  A
C898        H910   1.082       .  S
C899        H911   1.082       .  S
C900        C901   1.371       .  A
C900        H912   1.082       .  S
C901        H913   1.082       .  S
C902       C3497   1.485       .  S
C903       C3417   1.477       .  S
C904       C4673   1.485       .  S
C905       C5145   1.479       .  S
N916        C921   1.353       .  A
N916        C920   1.352       .  A
N916        H948   1.034       .  S
N917        C924   1.351       .  A
N917        C925   1.352       .  A
N918        C923   1.352       .  A
N918        C922   1.353       .  A
N918        H949   1.036       .  S
N919        C926   1.352       .  A
N919        C927   1.351       .  A
C920        C928   1.387       .  A
C920        C936   1.417       .  A
C921        C937   1.418       .  A
C921        C929   1.388       .  A
C922        C930   1.386       .  A
C922        C939   1.414       .  A
C923        C938   1.414       .  A
C923        C931   1.388       .  A
C924        C936   1.414       .  A
C924        C932   1.386       .  A
C925        C939   1.415       .  A
C925        C933   1.386       .  A
C926        C934   1.386       .  A
C926        C937   1.414       .  A
C927        C935   1.387       .  A
C927        C938   1.414       .  A
C928        C929   1.375       .  A
C928        H940   1.082       .  S
C929        H941   1.082       .  S
C930        C931   1.372       .  A
C930        H942   1.082       .  S
C931        H943   1.082       .  S
C932        C933   1.372       .  A
C932        H944   1.082       .  S
C933        H945   1.082       .  S
C934        C935   1.374       .  A
C934        H946   1.082       .  S
C935        H947   1.082       .  S
C936       C3513   1.483       .  S
C937       C3529   1.484       .  S
C938       C4249   1.479       .  S
C939       C4009   1.488       .  S
N950        C955   1.352       .  A
N950        C954   1.350       .  A
N950        H982   1.037       .  S
N951        C958   1.351       .  A
N951        C959   1.350       .  A
N952        C957   1.352       .  A
N952        C956   1.354       .  A
N952        H983   1.038       .  S
N953        C960   1.351       .  A
N953        C961   1.350       .  A
C954        C962   1.387       .  A
C954        C970   1.412       .  A
C955        C971   1.412       .  A
C955        C963   1.387       .  A
C956        C964   1.386       .  A
C956        C973   1.415       .  A
C957        C972   1.415       .  A
C957        C965   1.388       .  A
C958        C970   1.411       .  A
C958        C966   1.385       .  A
C959        C973   1.415       .  A
C959        C967   1.387       .  A
C960        C968   1.385       .  A
C960        C971   1.411       .  A
C961        C969   1.388       .  A
C961        C972   1.413       .  A
C962        C963   1.375       .  A
C962        H974   1.082       .  S
C963        H975   1.082       .  S
C964        C965   1.373       .  A
C964        H976   1.082       .  S
C965        H977   1.081       .  S
C966        C967   1.374       .  A
C966        H978   1.082       .  S
C967        H979   1.082       .  S
C968        C969   1.372       .  A
C968        H980   1.082       .  S
C969        H981   1.082       .  S
C970       C3401   1.479       .  S
C971       C3561   1.480       .  S
C972       C3353   1.477       .  S
C973       C4313   1.489       .  S
C984       C3329   1.487       .  S
C984        N985   1.359       .  A
C984        N989   1.363       .  A
N985        C986   1.356       .  A
C986       C3313   1.485       .  S
C986        N987   1.358       .  A
N987        C988   1.361       .  A
C988       C3297   1.489       .  S
C988        N989   1.364       .  A
N990        C995   1.353       .  A
N990        C994   1.355       .  A
N990       H1022   1.034       .  S
N991        C998   1.352       .  A
N991        C999   1.350       .  A
N992        C997   1.353       .  A
N992        C996   1.352       .  A
N992       H1023   1.037       .  S
N993       C1000   1.353       .  A
N993       C1001   1.354       .  A
C994       C1002   1.387       .  A
C994       C1010   1.418       .  A
C995       C1011   1.418       .  A
C995       C1003   1.388       .  A
C996       C1004   1.388       .  A
C996       C1013   1.414       .  A
C997       C1012   1.413       .  A
C997       C1005   1.386       .  A
C998       C1010   1.414       .  A
C998       C1006   1.386       .  A
C999       C1013   1.413       .  A
C999       C1007   1.387       .  A
C1000      C1008   1.386       .  A
C1000      C1011   1.416       .  A
C1001      C1009   1.387       .  A
C1001      C1012   1.419       .  A
C1002      C1003   1.375       .  A
C1002      H1014   1.082       .  S
C1003      H1015   1.082       .  S
C1004      C1005   1.372       .  A
C1004      H1016   1.082       .  S
C1005      H1017   1.082       .  S
C1006      C1007   1.372       .  A
C1006      H1018   1.082       .  S
C1007      H1019   1.083       .  S
C1008      C1009   1.373       .  A
C1008      H1020   1.082       .  S
C1009      H1021   1.082       .  S
C1010      C3305   1.487       .  S
C1011      C3281   1.486       .  S
C1012      C5233   1.490       .  S
C1013      C4145   1.477       .  S
C1024      C3257   1.485       .  S
C1024      N1025   1.362       .  A
C1024      N1029   1.361       .  A
N1025      C1026   1.361       .  A
C1026      C3241   1.486       .  S
C1026      N1027   1.359       .  A
N1027      C1028   1.359       .  A
C1028      C3273   1.486   1_554  S
C1028      N1029   1.359       .  A
C1030      C3185   1.476       .  S
C1030      N1031   1.357       .  A
C1030      N1035   1.355       .  A
N1031      C1032   1.358       .  A
C1032      C3201   1.481       .  S
C1032      N1033   1.360       .  A
N1033      C1034   1.359       .  A
C1034      C3217   1.477   1_554  S
C1034      N1035   1.355       .  A
C1036      C3169   1.481       .  S
C1036      N1037   1.362       .  A
C1036      N1041   1.356       .  A
N1037      C1038   1.362       .  A
C1038      C3289   1.486       .  S
C1038      N1039   1.360       .  A
N1039      C1040   1.357       .  A
C1040      C3161   1.479       .  S
C1040      N1041   1.353       .  A
N1042      C1047   1.353       .  A
N1042      C1046   1.353       .  A
N1042      H1074   1.034       .  S
N1043      C1050   1.349       .  A
N1043      C1051   1.350       .  A
N1044      C1049   1.352       .  A
N1044      C1048   1.352       .  A
N1044      H1075   1.026       .  S
N1045      C1052   1.348       .  A
N1045      C1053   1.349       .  A
C1046      C1054   1.387       .  A
C1046      C1062   1.413       .  A
C1047      C1063   1.415       .  A
C1047      C1055   1.388       .  A
C1048      C1056   1.386       .  A
C1048      C1065   1.415       .  A
C1049      C1064   1.419       .  A
C1049      C1057   1.389       .  A
C1050      C1062   1.411       .  A
C1050      C1058   1.386       .  A
C1051      C1065   1.413       .  A
C1051      C1059   1.387       .  A
C1052      C1060   1.386       .  A
C1052      C1063   1.410       .  A
C1053      C1061   1.388       .  A
C1053      C1064   1.416       .  A
C1054      C1055   1.372       .  A
C1054      H1066   1.082       .  S
C1055      H1067   1.082       .  S
C1056      C1057   1.370       .  A
C1056      H1068   1.082       .  S
C1057      H1069   1.082       .  S
C1058      C1059   1.373       .  A
C1058      H1070   1.082       .  S
C1059      H1071   1.082       .  S
C1060      C1061   1.372       .  A
C1060      H1072   1.083       .  S
C1061      H1073   1.082       .  S
C1062      C3153   1.476       .  S
C1063      C3193   1.474       .  S
C1064      C4385   1.478       .  S
C1065      C4617   1.477       .  S
N1076      C1081   1.350       .  A
N1076      C1080   1.355       .  A
N1076      H1108   1.037       .  S
N1077      C1084   1.351       .  A
N1077      C1085   1.349       .  A
N1078      C1083   1.351       .  A
N1078      C1082   1.351       .  A
N1078      H1109   1.038       .  S
N1079      C1086   1.351       .  A
N1079      C1087   1.352       .  A
C1080      C1088   1.386       .  A
C1080      C1096   1.415       .  A
C1081      C1097   1.415       .  A
C1081      C1089   1.388       .  A
C1082      C1090   1.388       .  A
C1082      C1099   1.413       .  A
C1083      C1098   1.409       .  A
C1083      C1091   1.385       .  A
C1084      C1096   1.410       .  A
C1084      C1092   1.385       .  A
C1085      C1099   1.414       .  A
C1085      C1093   1.388       .  A
C1086      C1094   1.387       .  A
C1086      C1097   1.412       .  A
C1087      C1095   1.386       .  A
C1087      C1098   1.412       .  A
C1088      C1089   1.377       .  A
C1088      H1100   1.082       .  S
C1089      H1101   1.082       .  S
C1090      C1091   1.377       .  A
C1090      H1102   1.082       .  S
C1091      H1103   1.082       .  S
C1092      C1093   1.372       .  A
C1092      H1104   1.082       .  S
C1093      H1105   1.082       .  S
C1094      C1095   1.372       .  A
C1094      H1106   1.082       .  S
C1095      H1107   1.082       .  S
C1096      C3233   1.489       .  S
C1097      C3177   1.476       .  S
C1098      C5121   1.481       .  S
C1099      C3601   1.483       .  S
N1110      C1115   1.353       .  A
N1110      C1114   1.351       .  A
N1110      H1142   1.035       .  S
N1111      C1118   1.350       .  A
N1111      C1119   1.350       .  A
N1112      C1117   1.351       .  A
N1112      C1116   1.355       .  A
N1112      H1143   1.036       .  S
N1113      C1120   1.353       .  A
N1113      C1121   1.352       .  A
C1114      C1122   1.387       .  A
C1114      C1130   1.413       .  A
C1115      C1131   1.416       .  A
C1115      C1123   1.388       .  A
C1116      C1124   1.385       .  A
C1116      C1133   1.415       .  A
C1117      C1132   1.416       .  A
C1117      C1125   1.389       .  A
C1118      C1130   1.411       .  A
C1118      C1126   1.386       .  A
C1119      C1133   1.413       .  A
C1119      C1127   1.387       .  A
C1120      C1128   1.385       .  A
C1120      C1131   1.416       .  A
C1121      C1129   1.387       .  A
C1121      C1132   1.417       .  A
C1122      C1123   1.375       .  A
C1122      H1134   1.083       .  S
C1123      H1135   1.082       .  S
C1124      C1125   1.372       .  A
C1124      H1136   1.082       .  S
C1125      H1137   1.080       .  S
C1126      C1127   1.371       .  A
C1126      H1138   1.082       .  S
C1127      H1139   1.082       .  S
C1128      C1129   1.374       .  A
C1128      H1140   1.082       .  S
C1129      H1141   1.082       .  S
C1130      C3225   1.476       .  S
C1131      C3265   1.486       .  S
C1132      C3137   1.482       .  S
C1133      C4465   1.490       .  S
N1144      C1149   1.354       .  A
N1144      C1148   1.354       .  A
N1144      H1176   1.037       .  S
N1145      C1152   1.352       .  A
N1145      C1153   1.351       .  A
N1146      C1151   1.353       .  A
N1146      C1150   1.352       .  A
N1146      H1177   1.038       .  S
N1147      C1154   1.351       .  A
N1147      C1155   1.352       .  A
C1148      C1156   1.387       .  A
C1148      C1164   1.418       .  A
C1149      C1165   1.416       .  A
C1149      C1157   1.387       .  A
C1150      C1158   1.387       .  A
C1150      C1167   1.413       .  A
C1151      C1166   1.414       .  A
C1151      C1159   1.387       .  A
C1152      C1164   1.414       .  A
C1152      C1160   1.386       .  A
C1153      C1167   1.413       .  A
C1153      C1161   1.386       .  A
C1154      C1162   1.385       .  A
C1154      C1165   1.411       .  A
C1155      C1163   1.387       .  A
C1155      C1166   1.415       .  A
C1156      C1157   1.376       .  A
C1156      H1168   1.082       .  S
C1157      H1169   1.082       .  S
C1158      C1159   1.374       .  A
C1158      H1170   1.082       .  S
C1159      H1171   1.082       .  S
C1160      C1161   1.375       .  A
C1160      H1172   1.082       .  S
C1161      H1173   1.082       .  S
C1162      C1163   1.373       .  A
C1162      H1174   1.082       .  S
C1163      H1175   1.082       .  S
C1164      C3249   1.489       .  S
C1165      C3321   1.484       .  S
C1166      C4057   1.488       .  S
C1167      C4289   1.481       .  S
N1178      C1183   1.353       .  A
N1178      C1182   1.356       .  A
N1178      H1210   1.031       .  S
N1179      C1186   1.353       .  A
N1179      C1187   1.351       .  A
N1180      C1185   1.354       .  A
N1180      C1184   1.352       .  A
N1180      H1211   1.034       .  S
N1181      C1188   1.350       .  A
N1181      C1189   1.353       .  A
C1182      C1190   1.386       .  A
C1182      C1198   1.420       .  A
C1183      C1199   1.421       .  A
C1183      C1191   1.389       .  A
C1184      C1192   1.387       .  A
C1184      C1201   1.415       .  A
C1185      C1200   1.416       .  A
C1185      C1193   1.387       .  A
C1186      C1198   1.415       .  A
C1186      C1194   1.386       .  A
C1187      C1201   1.415       .  A
C1187      C1195   1.387       .  A
C1188      C1196   1.387       .  A
C1188      C1199   1.416       .  A
C1189      C1197   1.386       .  A
C1189      C1200   1.415       .  A
C1190      C1191   1.375       .  A
C1190      H1202   1.082       .  S
C1191      H1203   1.082       .  S
C1192      C1193   1.371       .  A
C1192      H1204   1.082       .  S
C1193      H1205   1.081       .  S
C1194      C1195   1.373       .  A
C1194      H1206   1.082       .  S
C1195      H1207   1.082       .  S
C1196      C1197   1.373       .  A
C1196      H1208   1.082       .  S
C1197      H1209   1.082       .  S
C1198      C3337   1.490       .  S
C1199      C3209   1.480       .  S
C1200      C3977   1.487       .  S
C1201      C3681   1.484       .  S
O1212      C1228   1.275       .  A
O1212     Zn1218   2.012       .  S
C1213      O1229   1.273       .  A
C1213      O1226   1.273       .  A
C1213      C3121   1.482       .  S
O1214      C1227   1.277       .  A
O1214     Cd1221   2.100       .  S
O1215      C1233   1.272       .  A
O1215     Cd1224   2.044       .  S
O1216      C1230   1.276       .  A
O1216     Cd1220   2.069       .  S
O1217      C1228   1.277       .  A
O1217     Cd1220   2.084       .  S
Zn1218     O1229   2.015       .  S
Zn1218     O1231   1.969       .  S
Zn1218     O1223   1.926       .  S
O1219      C1230   1.275       .  A
O1219     Cd1224   2.063       .  S
Cd1220     O1222   2.055       .  S
Cd1220     O1223   1.991       .  S
Cd1221     O1225   2.096       .  S
Cd1221     O1234   2.094       .  S
Cd1221     O1223   2.028       .  S
O1222      C1232   1.273       .  A
O1223     Cd1224   1.983       .  S
Cd1224     O1226   2.060       .  S
O1225      C1232   1.278       .  A
C1227      O1231   1.269       .  A
C1227      C3097   1.471       .  S
C1228      C3105   1.486       .  S
C1230      C3145   1.481       .  S
C1232      C3361   1.476       .  S
C1233      O1234   1.277       .  A
C1233      C4761   1.475       .  S
O1235      C1251   1.273       .  A
O1235     Zn1241   2.015       .  S
C1236      O1252   1.273       .  A
C1236      O1249   1.274       .  A
C1236      C4793   1.479       .  S
O1237      C1250   1.279   1_455  A
O1237     Cd1244   2.109       .  S
O1238      C1256   1.270       .  A
O1238     Cd1247   2.034       .  S
O1239      C1253   1.275       .  A
O1239     Cd1243   2.074   1_565  S
O1240      C1251   1.274       .  A
O1240     Cd1243   2.064   1_655  S
Zn1241     O1252   2.004   1_545  S
Zn1241     O1254   1.967       .  S
Zn1241     O1246   1.925   1_655  S
O1242      C1253   1.273       .  A
O1242     Cd1247   2.051       .  S
Cd1243     O1245   2.045       .  S
Cd1243     O1246   1.991       .  S
Cd1244     O1248   2.107       .  S
Cd1244     O1257   2.112       .  S
Cd1244     O1246   2.033       .  S
O1245      C1255   1.273       .  A
O1246     Cd1247   1.982   1_545  S
Cd1247     O1249   2.067   1_455  S
O1248      C1255   1.280       .  A
C1250      O1254   1.270       .  A
C1250      C3049   1.476       .  S
C1251      C3081   1.483       .  S
C1253      C3721   1.475       .  S
C1255      C3025   1.479       .  S
C1256      O1257   1.279   1_565  A
C1256      C3057   1.473       .  S
C1258      C2993   1.484       .  S
C1258      N1259   1.359       .  A
C1258      N1263   1.364       .  A
N1259      C1260   1.354       .  A
C1260      C3009   1.479       .  S
C1260      N1261   1.353       .  A
N1261      C1262   1.356       .  A
C1262      C2985   1.481       .  S
C1262      N1263   1.363       .  A
C1264      C2961   1.488       .  S
C1264      N1265   1.359       .  A
C1264      N1269   1.359       .  A
N1265      C1266   1.359       .  A
C1266      C2945   1.484   1_545  S
C1266      N1267   1.359       .  A
N1267      C1268   1.360       .  A
C1268      C2929   1.486       .  S
C1268      N1269   1.361       .  A
C1270      C2921   1.489       .  S
C1270      N1271   1.366       .  A
C1270      N1275   1.363       .  A
N1271      C1272   1.365       .  A
C1272      C2881   1.486       .  S
C1272      N1273   1.355       .  A
N1273      C1274   1.352       .  A
C1274      C2905   1.480       .  S
C1274      N1275   1.357       .  A
N1276      C1281   1.352       .  A
N1276      C1280   1.353       .  A
N1276      H1308   1.036       .  S
N1277      C1284   1.351       .  A
N1277      C1285   1.351       .  A
N1278      C1283   1.351       .  A
N1278      C1282   1.349       .  A
N1278      H1309   1.037       .  S
N1279      C1286   1.349       .  A
N1279      C1287   1.350       .  A
C1280      C1288   1.386       .  A
C1280      C1296   1.416       .  A
C1281      C1297   1.418       .  A
C1281      C1289   1.388       .  A
C1282      C1290   1.387       .  A
C1282      C1299   1.411       .  A
C1283      C1298   1.411       .  A
C1283      C1291   1.388       .  A
C1284      C1296   1.412       .  A
C1284      C1292   1.386       .  A
C1285      C1299   1.412       .  A
C1285      C1293   1.386       .  A
C1286      C1294   1.387       .  A
C1286      C1297   1.412       .  A
C1287      C1295   1.386       .  A
C1287      C1298   1.411       .  A
C1288      C1289   1.376       .  A
C1288      H1300   1.082       .  S
C1289      H1301   1.082       .  S
C1290      C1291   1.372       .  A
C1290      H1302   1.082       .  S
C1291      H1303   1.082       .  S
C1292      C1293   1.372       .  A
C1292      H1304   1.082       .  S
C1293      H1305   1.082       .  S
C1294      C1295   1.373       .  A
C1294      H1306   1.082       .  S
C1295      H1307   1.082       .  S
C1296      C2937   1.482       .  S
C1297      C2897   1.480       .  S
C1298      C5105   1.477       .  S
C1299      C3665   1.480       .  S
N1310      C1315   1.352       .  A
N1310      C1314   1.352       .  A
N1310      H1342   1.033       .  S
N1311      C1318   1.353       .  A
N1311      C1319   1.352       .  A
N1312      C1317   1.355       .  A
N1312      C1316   1.354       .  A
N1312      H1343   1.036       .  S
N1313      C1320   1.351       .  A
N1313      C1321   1.350       .  A
C1314      C1322   1.390       .  A
C1314      C1330   1.419       .  A
C1315      C1331   1.415       .  A
C1315      C1323   1.386       .  A
C1316      C1324   1.388       .  A
C1316      C1333   1.418       .  A
C1317      C1332   1.419       .  A
C1317      C1325   1.387       .  A
C1318      C1330   1.417       .  A
C1318      C1326   1.386       .  A
C1319      C1333   1.417       .  A
C1319      C1327   1.387       .  A
C1320      C1328   1.385       .  A
C1320      C1331   1.411       .  A
C1321      C1329   1.388       .  A
C1321      C1332   1.415       .  A
C1322      C1323   1.373       .  A
C1322      H1334   1.082       .  S
C1323      H1335   1.082       .  S
C1324      C1325   1.372       .  A
C1324      H1336   1.081       .  S
C1325      H1337   1.082       .  S
C1326      C1327   1.373       .  A
C1326      H1338   1.082       .  S
C1327      H1339   1.082       .  S
C1328      C1329   1.371       .  A
C1328      H1340   1.082       .  S
C1329      H1341   1.082       .  S
C1330      C2889   1.484       .  S
C1331      C2977   1.480       .  S
C1332      C4217   1.489       .  S
C1333      C4513   1.485       .  S
C1344      C2849   1.482       .  S
C1344      N1345   1.359       .  A
C1344      N1349   1.352       .  A
N1345      C1346   1.364       .  A
C1346      C2865   1.488       .  S
C1346      N1347   1.365       .  A
N1347      C1348   1.362       .  A
C1348      C2833   1.483       .  S
C1348      N1349   1.352       .  A
N1350      C1355   1.354       .  A
N1350      C1354   1.352       .  A
N1350      H1382   1.037       .  S
N1351      C1358   1.350       .  A
N1351      C1359   1.351       .  A
N1352      C1357   1.353       .  A
N1352      C1356   1.355       .  A
N1352      H1383   1.038       .  S
N1353      C1360   1.354       .  A
N1353      C1361   1.351       .  A
C1354      C1362   1.389       .  A
C1354      C1370   1.416       .  A
C1355      C1371   1.413       .  A
C1355      C1363   1.386       .  A
C1356      C1364   1.385       .  A
C1356      C1373   1.413       .  A
C1357      C1372   1.418       .  A
C1357      C1365   1.389       .  A
C1358      C1370   1.411       .  A
C1358      C1366   1.386       .  A
C1359      C1373   1.413       .  A
C1359      C1367   1.386       .  A
C1360      C1368   1.385       .  A
C1360      C1371   1.414       .  A
C1361      C1369   1.387       .  A
C1361      C1372   1.417       .  A
C1362      C1363   1.375       .  A
C1362      H1374   1.082       .  S
C1363      H1375   1.082       .  S
C1364      C1365   1.373       .  A
C1364      H1376   1.082       .  S
C1365      H1377   1.082       .  S
C1366      C1367   1.374       .  A
C1366      H1378   1.082       .  S
C1367      H1379   1.082       .  S
C1368      C1369   1.375       .  A
C1368      H1380   1.082       .  S
C1369      H1381   1.082       .  S
C1370      C2841   1.478       .  S
C1371      C2913   1.489       .  S
C1372      C5257   1.488       .  S
C1373      C3113   1.485       .  S
N1384      C1389   1.352       .  A
N1384      C1388   1.351       .  A
N1384      H1416   1.037       .  S
N1385      C1392   1.352       .  A
N1385      C1393   1.352       .  A
N1386      C1391   1.351       .  A
N1386      C1390   1.351       .  A
N1386      H1417   1.038       .  S
N1387      C1394   1.351       .  A
N1387      C1395   1.350       .  A
C1388      C1396   1.388       .  A
C1388      C1404   1.415       .  A
C1389      C1405   1.414       .  A
C1389      C1397   1.387       .  A
C1390      C1398   1.387       .  A
C1390      C1407   1.412       .  A
C1391      C1406   1.414       .  A
C1391      C1399   1.388       .  A
C1392      C1404   1.414       .  A
C1392      C1400   1.386       .  A
C1393      C1407   1.416       .  A
C1393      C1401   1.387       .  A
C1394      C1402   1.386       .  A
C1394      C1405   1.412       .  A
C1395      C1403   1.387       .  A
C1395      C1406   1.414       .  A
C1396      C1397   1.373       .  A
C1396      H1408   1.082       .  S
C1397      H1409   1.082       .  S
C1398      C1399   1.373       .  A
C1398      H1410   1.082       .  S
C1399      H1411   1.082       .  S
C1400      C1401   1.374       .  A
C1400      H1412   1.082       .  S
C1401      H1413   1.082       .  S
C1402      C1403   1.372       .  A
C1402      H1414   1.082       .  S
C1403      H1415   1.082       .  S
C1404      C2953   1.481       .  S
C1405      C3017   1.479       .  S
C1406      C4481   1.481       .  S
C1407      C4129   1.481       .  S
N1418      C1423   1.354       .  A
N1418      C1422   1.355       .  A
N1418      H1450   1.037       .  S
N1419      C1426   1.353       .  A
N1419      C1427   1.352       .  A
N1420      C1425   1.355       .  A
N1420      C1424   1.353       .  A
N1420      H1451   1.037       .  S
N1421      C1428   1.353       .  A
N1421      C1429   1.353       .  A
C1422      C1430   1.387       .  A
C1422      C1438   1.418       .  A
C1423      C1439   1.416       .  A
C1423      C1431   1.387       .  A
C1424      C1432   1.387       .  A
C1424      C1441   1.414       .  A
C1425      C1440   1.416       .  A
C1425      C1433   1.388       .  A
C1426      C1438   1.414       .  A
C1426      C1434   1.386       .  A
C1427      C1441   1.415       .  A
C1427      C1435   1.387       .  A
C1428      C1436   1.385       .  A
C1428      C1439   1.414       .  A
C1429      C1437   1.387       .  A
C1429      C1440   1.418       .  A
C1430      C1431   1.375       .  A
C1430      H1442   1.082       .  S
C1431      H1443   1.082       .  S
C1432      C1433   1.372       .  A
C1432      H1444   1.082       .  S
C1433      H1445   1.082       .  S
C1434      C1435   1.373       .  A
C1434      H1446   1.082       .  S
C1435      H1447   1.082       .  S
C1436      C1437   1.373       .  A
C1436      H1448   1.082       .  S
C1437      H1449   1.082       .  S
C1438      C2873   1.488       .  S
C1439      C2969   1.486       .  S
C1440      C3041   1.492       .  S
C1441      C2817   1.482       .  S
N1452      C1457   1.352       .  A
N1452      C1456   1.353       .  A
N1452      H1484   1.031       .  S
N1453      C1460   1.352       .  A
N1453      C1461   1.350       .  A
N1454      C1459   1.354       .  A
N1454      C1458   1.354       .  A
N1454      H1485   1.029       .  S
N1455      C1462   1.352       .  A
N1455      C1463   1.352       .  A
C1456      C1464   1.387       .  A
C1456      C1472   1.414       .  A
C1457      C1473   1.417       .  A
C1457      C1465   1.389       .  A
C1458      C1466   1.388       .  A
C1458      C1475   1.422       .  A
C1459      C1474   1.422       .  A
C1459      C1467   1.388       .  A
C1460      C1472   1.412       .  A
C1460      C1468   1.385       .  A
C1461      C1475   1.419       .  A
C1461      C1469   1.389       .  A
C1462      C1470   1.385       .  A
C1462      C1473   1.416       .  A
C1463      C1471   1.388       .  A
C1463      C1474   1.421       .  A
C1464      C1465   1.372       .  A
C1464      H1476   1.082       .  S
C1465      H1477   1.082       .  S
C1466      C1467   1.373       .  A
C1466      H1478   1.081       .  S
C1467      H1479   1.081       .  S
C1468      C1469   1.370       .  A
C1468      H1480   1.083       .  S
C1469      H1481   1.082       .  S
C1470      C1471   1.371       .  A
C1470      H1482   1.082       .  S
C1471      H1483   1.082       .  S
C1472      C2857   1.480       .  S
C1473      C3001   1.480       .  S
C1474      C3961   1.488       .  S
C1475      C3585   1.488       .  S
C1486      C2793   1.482       .  S
C1486      N1487   1.358       .  A
C1486      N1491   1.356       .  A
N1487      C1488   1.362       .  A
C1488      C2801   1.489       .  S
C1488      N1489   1.364       .  A
N1489      C1490   1.362       .  A
C1490      C2777   1.486       .  S
C1490      N1491   1.358       .  A
N1492      C1497   1.354       .  A
N1492      C1496   1.354       .  A
N1492      H1524   1.033       .  S
N1493      C1500   1.352       .  A
N1493      C1501   1.351       .  A
N1494      C1499   1.353       .  A
N1494      C1498   1.353       .  A
N1494      H1525   1.036       .  S
N1495      C1502   1.354       .  A
N1495      C1503   1.353       .  A
C1496      C1504   1.387       .  A
C1496      C1512   1.419       .  A
C1497      C1513   1.421       .  A
C1497      C1505   1.388       .  A
C1498      C1506   1.388       .  A
C1498      C1515   1.416       .  A
C1499      C1514   1.416       .  A
C1499      C1507   1.387       .  A
C1500      C1512   1.415       .  A
C1500      C1508   1.386       .  A
C1501      C1515   1.416       .  A
C1501      C1509   1.387       .  A
C1502      C1510   1.386       .  A
C1502      C1513   1.418       .  A
C1503      C1511   1.387       .  A
C1503      C1514   1.419       .  A
C1504      C1505   1.375       .  A
C1504      H1516   1.082       .  S
C1505      H1517   1.081       .  S
C1506      C1507   1.375       .  A
C1506      H1518   1.082       .  S
C1507      H1519   1.082       .  S
C1508      C1509   1.373       .  A
C1508      H1520   1.082       .  S
C1509      H1521   1.082       .  S
C1510      C1511   1.371       .  A
C1510      H1522   1.082       .  S
C1511      H1523   1.082       .  S
C1512      C2761   1.486       .  S
C1513      C2769   1.489       .  S
C1514      C4081   1.489       .  S
C1515      C4665   1.481       .  S
C1526      C2745   1.488       .  S
C1526      N1527   1.363       .  A
C1526      N1531   1.359       .  A
N1527      C1528   1.363       .  A
C1528      C2721   1.489       .  S
C1528      N1529   1.362       .  A
N1529      C1530   1.359       .  A
C1530      C2713   1.488       .  S
C1530      N1531   1.357       .  A
C1532      C2689   1.490       .  S
C1532      N1533   1.362       .  A
C1532      N1537   1.365       .  A
N1533      C1534   1.360       .  A
C1534      C2681   1.485       .  S
C1534      N1535   1.355       .  A
N1535      C1536   1.356       .  A
C1536      C2753   1.489       .  S
C1536      N1537   1.362       .  A
N1538      C1543   1.353       .  A
N1538      C1542   1.353       .  A
N1538      H1570   1.034       .  S
N1539      C1546   1.353       .  A
N1539      C1547   1.352       .  A
N1540      C1545   1.354       .  A
N1540      C1544   1.353       .  A
N1540      H1571   1.036       .  S
N1541      C1548   1.353       .  A
N1541      C1549   1.352       .  A
C1542      C1550   1.388       .  A
C1542      C1558   1.417       .  A
C1543      C1559   1.417       .  A
C1543      C1551   1.387       .  A
C1544      C1552   1.387       .  A
C1544      C1561   1.416       .  A
C1545      C1560   1.416       .  A
C1545      C1553   1.387       .  A
C1546      C1558   1.415       .  A
C1546      C1554   1.385       .  A
C1547      C1561   1.418       .  A
C1547      C1555   1.388       .  A
C1548      C1556   1.385       .  A
C1548      C1559   1.414       .  A
C1549      C1557   1.387       .  A
C1549      C1560   1.418       .  A
C1550      C1551   1.375       .  A
C1550      H1562   1.082       .  S
C1551      H1563   1.082       .  S
C1552      C1553   1.376       .  A
C1552      H1564   1.082       .  S
C1553      H1565   1.082       .  S
C1554      C1555   1.373       .  A
C1554      H1566   1.082       .  S
C1555      H1567   1.082       .  S
C1556      C1557   1.371       .  A
C1556      H1568   1.082       .  S
C1557      H1569   1.082       .  S
C1558      C2673   1.483       .  S
C1559      C2705   1.488       .  S
C1560      C4417   1.491       .  S
C1561      C5193   1.486       .  S
C1572      C2665   1.478       .  S
C1572      N1573   1.360       .  A
C1572      N1577   1.359       .  A
N1573      C1574   1.359       .  A
C1574      C2625   1.481   1_455  S
C1574      N1575   1.357       .  A
N1575      C1576   1.356       .  A
C1576      C2649   1.475       .  S
C1576      N1577   1.358       .  A
N1578      C1583   1.351       .  A
N1578      C1582   1.353       .  A
N1578      H1610   1.038       .  S
N1579      C1586   1.353       .  A
N1579      C1587   1.352       .  A
N1580      C1585   1.354       .  A
N1580      C1584   1.351       .  A
N1580      H1611   1.037       .  S
N1581      C1588   1.351       .  A
N1581      C1589   1.352       .  A
C1582      C1590   1.386       .  A
C1582      C1598   1.413       .  A
C1583      C1599   1.414       .  A
C1583      C1591   1.388       .  A
C1584      C1592   1.387       .  A
C1584      C1601   1.413       .  A
C1585      C1600   1.415       .  A
C1585      C1593   1.387       .  A
C1586      C1598   1.414       .  A
C1586      C1594   1.385       .  A
C1587      C1601   1.415       .  A
C1587      C1595   1.387       .  A
C1588      C1596   1.386       .  A
C1588      C1599   1.412       .  A
C1589      C1597   1.387       .  A
C1589      C1600   1.416       .  A
C1590      C1591   1.376       .  A
C1590      H1602   1.082       .  S
C1591      H1603   1.082       .  S
C1592      C1593   1.375       .  A
C1592      H1604   1.082       .  S
C1593      H1605   1.082       .  S
C1594      C1595   1.374       .  A
C1594      H1606   1.082       .  S
C1595      H1607   1.082       .  S
C1596      C1597   1.372       .  A
C1596      H1608   1.082       .  S
C1597      H1609   1.082       .  S
C1598      C2697   1.487       .  S
C1599      C2641   1.481       .  S
C1600      C2609   1.491       .  S
C1601      C4577   1.481       .  S
N1612      C1617   1.352       .  A
N1612      C1616   1.354       .  A
N1612      H1644   1.036       .  S
N1613      C1620   1.350       .  A
N1613      C1621   1.350       .  A
N1614      C1619   1.353       .  A
N1614      C1618   1.350       .  A
N1614      H1645   1.037       .  S
N1615      C1622   1.349       .  A
N1615      C1623   1.350       .  A
C1616      C1624   1.387       .  A
C1616      C1632   1.415       .  A
C1617      C1633   1.415       .  A
C1617      C1625   1.388       .  A
C1618      C1626   1.387       .  A
C1618      C1635   1.410       .  A
C1619      C1634   1.412       .  A
C1619      C1627   1.388       .  A
C1620      C1632   1.412       .  A
C1620      C1628   1.386       .  A
C1621      C1635   1.410       .  A
C1621      C1629   1.386       .  A
C1622      C1630   1.387       .  A
C1622      C1633   1.411       .  A
C1623      C1631   1.386       .  A
C1623      C1634   1.411       .  A
C1624      C1625   1.374       .  A
C1624      H1636   1.082       .  S
C1625      H1637   1.082       .  S
C1626      C1627   1.372       .  A
C1626      H1638   1.082       .  S
C1627      H1639   1.082       .  S
C1628      C1629   1.374       .  A
C1628      H1640   1.082       .  S
C1629      H1641   1.082       .  S
C1630      C1631   1.374       .  A
C1630      H1642   1.082       .  S
C1631      H1643   1.082       .  S
C1632      C2785   1.484       .  S
C1633      C2633   1.477       .  S
C1634      C3129   1.479       .  S
C1635      C4169   1.474       .  S
N1646      C1651   1.353       .  A
N1646      C1650   1.352       .  A
N1646      H1678   1.038       .  S
N1647      C1654   1.354       .  A
N1647      C1655   1.352       .  A
N1648      C1653   1.355       .  A
N1648      C1652   1.353       .  A
N1648      H1679   1.039       .  S
N1649      C1656   1.353       .  A
N1649      C1657   1.352       .  A
C1650      C1658   1.387       .  A
C1650      C1666   1.413       .  A
C1651      C1667   1.416       .  A
C1651      C1659   1.388       .  A
C1652      C1660   1.386       .  A
C1652      C1669   1.415       .  A
C1653      C1668   1.417       .  A
C1653      C1661   1.388       .  A
C1654      C1666   1.413       .  A
C1654      C1662   1.384       .  A
C1655      C1669   1.418       .  A
C1655      C1663   1.388       .  A
C1656      C1664   1.386       .  A
C1656      C1667   1.415       .  A
C1657      C1665   1.387       .  A
C1657      C1668   1.417       .  A
C1658      C1659   1.375       .  A
C1658      H1670   1.082       .  S
C1659      H1671   1.082       .  S
C1660      C1661   1.375       .  A
C1660      H1672   1.082       .  S
C1661      H1673   1.082       .  S
C1662      C1663   1.374       .  A
C1662      H1674   1.082       .  S
C1663      H1675   1.082       .  S
C1664      C1665   1.372       .  A
C1664      H1676   1.082       .  S
C1665      H1677   1.082       .  S
C1666      C2809   1.486       .  S
C1667      C2737   1.487       .  S
C1668      C4193   1.493       .  S
C1669      C3065   1.491       .  S
N1680      C1685   1.352       .  A
N1680      C1684   1.356       .  A
N1680      H1712   1.037       .  S
N1681      C1688   1.352       .  A
N1681      C1689   1.350       .  A
N1682      C1687   1.353       .  A
N1682      C1686   1.351       .  A
N1682      H1713   1.037       .  S
N1683      C1690   1.351       .  A
N1683      C1691   1.352       .  A
C1684      C1692   1.386       .  A
C1684      C1700   1.417       .  A
C1685      C1701   1.417       .  A
C1685      C1693   1.388       .  A
C1686      C1694   1.388       .  A
C1686      C1703   1.413       .  A
C1687      C1702   1.412       .  A
C1687      C1695   1.387       .  A
C1688      C1700   1.412       .  A
C1688      C1696   1.385       .  A
C1689      C1703   1.413       .  A
C1689      C1697   1.387       .  A
C1690      C1698   1.387       .  A
C1690      C1701   1.414       .  A
C1691      C1699   1.386       .  A
C1691      C1702   1.413       .  A
C1692      C1693   1.375       .  A
C1692      H1704   1.082       .  S
C1693      H1705   1.082       .  S
C1694      C1695   1.374       .  A
C1694      H1706   1.082       .  S
C1695      H1707   1.082       .  S
C1696      C1697   1.373       .  A
C1696      H1708   1.082       .  S
C1697      H1709   1.082       .  S
C1698      C1699   1.374       .  A
C1698      H1710   1.082       .  S
C1699      H1711   1.082       .  S
C1700      C2729   1.492       .  S
C1701      C2657   1.484       .  S
C1702      C4273   1.485       .  S
C1703      C4361   1.476       .  S
C1714      C2561   1.481       .  S
C1714      N1715   1.358       .  A
C1714      N1719   1.359       .  A
N1715      C1716   1.358       .  A
C1716      C2585   1.480       .  S
C1716      N1717   1.356       .  A
N1717      C1718   1.357       .  A
C1718      C2593   1.480       .  S
C1718      N1719   1.358       .  A
N1720      C1725   1.350       .  A
N1720      C1724   1.352       .  A
N1720      H1752   1.037       .  S
N1721      C1728   1.351       .  A
N1721      C1729   1.349       .  A
N1722      C1727   1.352       .  A
N1722      C1726   1.351       .  A
N1722      H1753   1.038       .  S
N1723      C1730   1.350       .  A
N1723      C1731   1.351       .  A
C1724      C1732   1.388       .  A
C1724      C1740   1.413       .  A
C1725      C1741   1.411       .  A
C1725      C1733   1.387       .  A
C1726      C1734   1.387       .  A
C1726      C1743   1.412       .  A
C1727      C1742   1.413       .  A
C1727      C1735   1.387       .  A
C1728      C1740   1.411       .  A
C1728      C1736   1.386       .  A
C1729      C1743   1.410       .  A
C1729      C1737   1.386       .  A
C1730      C1738   1.385       .  A
C1730      C1741   1.409       .  A
C1731      C1739   1.388       .  A
C1731      C1742   1.415       .  A
C1732      C1733   1.376       .  A
C1732      H1744   1.082       .  S
C1733      H1745   1.082       .  S
C1734      C1735   1.375       .  A
C1734      H1746   1.082       .  S
C1735      H1747   1.082       .  S
C1736      C1737   1.374       .  A
C1736      H1748   1.082       .  S
C1737      H1749   1.082       .  S
C1738      C1739   1.371       .  A
C1738      H1750   1.082       .  S
C1739      H1751   1.082       .  S
C1740      C2545   1.480       .  S
C1741      C2577   1.476       .  S
C1742      C5097   1.487       .  S
C1743      C5169   1.477       .  S
C1754      C2553   1.483       .  S
C1754      N1755   1.358       .  A
C1754      N1759   1.358       .  A
N1755      C1756   1.360       .  A
C1756      C2529   1.486       .  S
C1756      N1757   1.360       .  A
N1757      C1758   1.360       .  A
C1758      C2521   1.482       .  S
C1758      N1759   1.358       .  A
C1760      C2473   1.485       .  S
C1760      N1761   1.359       .  A
C1760      N1765   1.356       .  A
N1761      C1762   1.361       .  A
C1762      C2489   1.486       .  S
C1762      N1763   1.362       .  A
N1763      C1764   1.360       .  A
C1764      C2505   1.485   1_655  S
C1764      N1765   1.357       .  A
C1766      C2449   1.490   1_655  S
C1766      N1767   1.361       .  A
C1766      N1771   1.359       .  A
N1767      C1768   1.362       .  A
C1768      C2441   1.486       .  S
C1768      N1769   1.361       .  A
N1769      C1770   1.360       .  A
C1770      C2417   1.486       .  S
C1770      N1771   1.359       .  A
N1772      C1777   1.353       .  A
N1772      C1776   1.352       .  A
N1772      H1804   1.036       .  S
N1773      C1780   1.353       .  A
N1773      C1781   1.353       .  A
N1774      C1779   1.354       .  A
N1774      C1778   1.355       .  A
N1774      H1805   1.037       .  S
N1775      C1782   1.355       .  A
N1775      C1783   1.353       .  A
C1776      C1784   1.388       .  A
C1776      C1792   1.415       .  A
C1777      C1793   1.415       .  A
C1777      C1785   1.387       .  A
C1778      C1786   1.387       .  A
C1778      C1795   1.417       .  A
C1779      C1794   1.417       .  A
C1779      C1787   1.387       .  A
C1780      C1792   1.414       .  A
C1780      C1788   1.385       .  A
C1781      C1795   1.419       .  A
C1781      C1789   1.388       .  A
C1782      C1790   1.384       .  A
C1782      C1793   1.415       .  A
C1783      C1791   1.388       .  A
C1783      C1794   1.420       .  A
C1784      C1785   1.374       .  A
C1784      H1796   1.082       .  S
C1785      H1797   1.082       .  S
C1786      C1787   1.376       .  A
C1786      H1798   1.082       .  S
C1787      H1799   1.082       .  S
C1788      C1789   1.372       .  A
C1788      H1800   1.082       .  S
C1789      H1801   1.082       .  S
C1790      C1791   1.374       .  A
C1790      H1802   1.082       .  S
C1791      H1803   1.082       .  S
C1792      C2497   1.483       .  S
C1793      C2457   1.488       .  S
C1794      C4545   1.491       .  S
C1795      C4649   1.492       .  S
N1806      C1811   1.353       .  A
N1806      C1810   1.353       .  A
N1806      H1838   1.035       .  S
N1807      C1814   1.351       .  A
N1807      C1815   1.352       .  A
N1808      C1813   1.352       .  A
N1808      C1812   1.353       .  A
N1808      H1839   1.036       .  S
N1809      C1816   1.353       .  A
N1809      C1817   1.352       .  A
C1810      C1818   1.387       .  A
C1810      C1826   1.415       .  A
C1811      C1827   1.416       .  A
C1811      C1819   1.387       .  A
C1812      C1820   1.388       .  A
C1812      C1829   1.416       .  A
C1813      C1828   1.413       .  A
C1813      C1821   1.386       .  A
C1814      C1826   1.412       .  A
C1814      C1822   1.385       .  A
C1815      C1829   1.417       .  A
C1815      C1823   1.388       .  A
C1816      C1824   1.385       .  A
C1816      C1827   1.414       .  A
C1817      C1825   1.387       .  A
C1817      C1828   1.416       .  A
C1818      C1819   1.374       .  A
C1818      H1830   1.082       .  S
C1819      H1831   1.082       .  S
C1820      C1821   1.375       .  A
C1820      H1832   1.082       .  S
C1821      H1833   1.082       .  S
C1822      C1823   1.372       .  A
C1822      H1834   1.083       .  S
C1823      H1835   1.082       .  S
C1824      C1825   1.372       .  A
C1824      H1836   1.082       .  S
C1825      H1837   1.082       .  S
C1826      C2513   1.481       .  S
C1827      C2425   1.486       .  S
C1828      C2401   1.481       .  S
C1829      C3089   1.488       .  S
N1840      C1845   1.353       .  A
N1840      C1844   1.353       .  A
N1840      H1872   1.034       .  S
N1841      C1848   1.351       .  A
N1841      C1849   1.351       .  A
N1842      C1847   1.352       .  A
N1842      C1846   1.351       .  A
N1842      H1873   1.038       .  S
N1843      C1850   1.352       .  A
N1843      C1851   1.352       .  A
C1844      C1852   1.389       .  A
C1844      C1860   1.418       .  A
C1845      C1861   1.416       .  A
C1845      C1853   1.386       .  A
C1846      C1854   1.386       .  A
C1846      C1863   1.410       .  A
C1847      C1862   1.415       .  A
C1847      C1855   1.387       .  A
C1848      C1860   1.416       .  A
C1848      C1856   1.388       .  A
C1849      C1863   1.412       .  A
C1849      C1857   1.385       .  A
C1850      C1858   1.387       .  A
C1850      C1861   1.414       .  A
C1851      C1859   1.386       .  A
C1851      C1862   1.416       .  A
C1852      C1853   1.376       .  A
C1852      H1864   1.081       .  S
C1853      H1865   1.082       .  S
C1854      C1855   1.373       .  A
C1854      H1866   1.081       .  S
C1855      H1867   1.082       .  S
C1856      C1857   1.372       .  A
C1856      H1868   1.082       .  S
C1857      H1869   1.082       .  S
C1858      C1859   1.371       .  A
C1858      H1870   1.082       .  S
C1859      H1871   1.082       .  S
C1860      C2601   1.483       .  S
C1861      C2481   1.484       .  S
C1862      C4321   1.492       .  S
C1863      C3633   1.479       .  S
N1874      C1879   1.352       .  A
N1874      C1878   1.355       .  A
N1874      H1906   1.037       .  S
N1875      C1882   1.351       .  A
N1875      C1883   1.350       .  A
N1876      C1881   1.354       .  A
N1876      C1880   1.351       .  A
N1876      H1907   1.037       .  S
N1877      C1884   1.352       .  A
N1877      C1885   1.353       .  A
C1878      C1886   1.387       .  A
C1878      C1894   1.418       .  A
C1879      C1895   1.416       .  A
C1879      C1887   1.387       .  A
C1880      C1888   1.388       .  A
C1880      C1897   1.414       .  A
C1881      C1896   1.415       .  A
C1881      C1889   1.386       .  A
C1882      C1894   1.413       .  A
C1882      C1890   1.387       .  A
C1883      C1897   1.412       .  A
C1883      C1891   1.386       .  A
C1884      C1892   1.386       .  A
C1884      C1895   1.413       .  A
C1885      C1893   1.386       .  A
C1885      C1896   1.417       .  A
C1886      C1887   1.377       .  A
C1886      H1898   1.082       .  S
C1887      H1899   1.082       .  S
C1888      C1889   1.373       .  A
C1888      H1900   1.082       .  S
C1889      H1901   1.082       .  S
C1890      C1891   1.371       .  A
C1890      H1902   1.082       .  S
C1891      H1903   1.082       .  S
C1892      C1893   1.374       .  A
C1892      H1904   1.082       .  S
C1893      H1905   1.082       .  S
C1894      C2465   1.487       .  S
C1895      C2537   1.483       .  S
C1896      C4105   1.492       .  S
C1897      C4041   1.477       .  S
N1908      C1913   1.353       .  A
N1908      C1912   1.352       .  A
N1908      H1940   1.035       .  S
N1909      C1916   1.350       .  A
N1909      C1917   1.350       .  A
N1910      C1915   1.351       .  A
N1910      C1914   1.354       .  A
N1910      H1941   1.037       .  S
N1911      C1918   1.353       .  A
N1911      C1919   1.352       .  A
C1912      C1920   1.387       .  A
C1912      C1928   1.414       .  A
C1913      C1929   1.418       .  A
C1913      C1921   1.388       .  A
C1914      C1922   1.388       .  A
C1914      C1931   1.418       .  A
C1915      C1930   1.412       .  A
C1915      C1923   1.385       .  A
C1916      C1928   1.412       .  A
C1916      C1924   1.387       .  A
C1917      C1931   1.414       .  A
C1917      C1925   1.387       .  A
C1918      C1926   1.385       .  A
C1918      C1929   1.415       .  A
C1919      C1927   1.387       .  A
C1919      C1930   1.415       .  A
C1920      C1921   1.375       .  A
C1920      H1932   1.082       .  S
C1921      H1933   1.082       .  S
C1922      C1923   1.376       .  A
C1922      H1934   1.082       .  S
C1923      H1935   1.082       .  S
C1924      C1925   1.372       .  A
C1924      H1936   1.082       .  S
C1925      H1937   1.082       .  S
C1926      C1927   1.373       .  A
C1926      H1938   1.082       .  S
C1927      H1939   1.082       .  S
C1928      C2569   1.478       .  S
C1929      C2433   1.487       .  S
C1930      C3073   1.481       .  S
C1931      C3697   1.490       .  S
O1942      C1958   1.268       .  A
O1942     Zn1948   1.975       .  S
C1943      O1959   1.270       .  A
C1943      O1956   1.274       .  A
C1943      C4697   1.471       .  S
O1944      C1957   1.276       .  A
O1944     Cd1951   2.098       .  S
O1945      C1963   1.272       .  A
O1945     Cd1954   2.041       .  S
O1946      C1960   1.273       .  A
O1946     Cd1950   2.056   1_655  S
O1947      C1958   1.274       .  A
O1947     Cd1950   2.066       .  S
Zn1948     O1959   1.989   1_455  S
Zn1948     O1961   1.960       .  S
Zn1948     O1953   1.916       .  S
O1949      C1960   1.277       .  A
O1949     Cd1954   2.081       .  S
Cd1950     O1952   2.039       .  S
Cd1950     O1953   1.980       .  S
Cd1951     O1955   2.099       .  S
Cd1951     O1964   2.090       .  S
Cd1951     O1953   2.032       .  S
O1952      C1962   1.271       .  A
O1953     Cd1954   1.987   1_455  S
Cd1954     O1956   2.076       .  S
O1955      C1962   1.277       .  A
C1957      O1961   1.268       .  A
C1957      C2385   1.466       .  S
C1958      C3345   1.473       .  S
C1960      C2409   1.480       .  S
C1962      C2617   1.474       .  S
C1963      O1964   1.278   1_655  A
C1963      C2825   1.465       .  S
C1965      C2361   1.485   1_554  S
C1965      N1966   1.358       .  A
C1965      N1970   1.361       .  A
N1966      C1967   1.356       .  A
C1967      C2369   1.482   1_455  S
C1967      N1968   1.357       .  A
N1968      C1969   1.359       .  A
C1969      C2337   1.485       .  S
C1969      N1970   1.362       .  A
N1971      C1976   1.352       .  A
N1971      C1975   1.353       .  A
N1971      H2003   1.034       .  S
N1972      C1979   1.349       .  A
N1972      C1980   1.350       .  A
N1973      C1978   1.350       .  A
N1973      C1977   1.351       .  A
N1973      H2004   1.036       .  S
N1974      C1981   1.351       .  A
N1974      C1982   1.351       .  A
C1975      C1983   1.388       .  A
C1975      C1991   1.417       .  A
C1976      C1992   1.417       .  A
C1976      C1984   1.387       .  A
C1977      C1985   1.387       .  A
C1977      C1994   1.411       .  A
C1978      C1993   1.411       .  A
C1978      C1986   1.388       .  A
C1979      C1991   1.412       .  A
C1979      C1987   1.387       .  A
C1980      C1994   1.411       .  A
C1980      C1988   1.386       .  A
C1981      C1989   1.387       .  A
C1981      C1992   1.415       .  A
C1982      C1990   1.386       .  A
C1982      C1993   1.413       .  A
C1983      C1984   1.376       .  A
C1983      H1995   1.082       .  S
C1984      H1996   1.082       .  S
C1985      C1986   1.372       .  A
C1985      H1997   1.082       .  S
C1986      H1998   1.082       .  S
C1987      C1988   1.373       .  A
C1987      H1999   1.082       .  S
C1988      H2000   1.082       .  S
C1989      C1990   1.375       .  A
C1989      H2001   1.082       .  S
C1990      H2002   1.082       .  S
C1991      C2329   1.480       .  S
C1992      C2345   1.481       .  S
C1993      C4257   1.478       .  S
C1994      C4601   1.476       .  S
C2005      C2281   1.477       .  S
C2005      N2006   1.357       .  A
C2005      N2010   1.358       .  A
N2006      C2007   1.358       .  A
C2007      C2305   1.475       .  S
C2007      N2008   1.358       .  A
N2008      C2009   1.358       .  A
C2009      C2289   1.480       .  S
C2009      N2010   1.357       .  A
C2011      C2321   1.483       .  S
C2011      N2012   1.358       .  A
C2011      N2016   1.363       .  A
N2012      C2013   1.355       .  A
C2013      C2249   1.478       .  S
C2013      N2014   1.354       .  A
N2014      C2015   1.357       .  A
C2015      C2257   1.484       .  S
C2015      N2016   1.363       .  A
N2017      C2022   1.354       .  A
N2017      C2021   1.353       .  A
N2017      H2049   1.038       .  S
N2018      C2025   1.351       .  A
N2018      C2026   1.352       .  A
N2019      C2024   1.351       .  A
N2019      C2023   1.354       .  A
N2019      H2050   1.036       .  S
N2020      C2027   1.351       .  A
N2020      C2028   1.351       .  A
C2021      C2029   1.388       .  A
C2021      C2037   1.416       .  A
C2022      C2038   1.414       .  A
C2022      C2030   1.387       .  A
C2023      C2031   1.387       .  A
C2023      C2040   1.415       .  A
C2024      C2039   1.413       .  A
C2024      C2032   1.387       .  A
C2025      C2037   1.412       .  A
C2025      C2033   1.385       .  A
C2026      C2040   1.416       .  A
C2026      C2034   1.387       .  A
C2027      C2035   1.386       .  A
C2027      C2038   1.410       .  A
C2028      C2036   1.387       .  A
C2028      C2039   1.412       .  A
C2029      C2030   1.372       .  A
C2029      H2041   1.082       .  S
C2030      H2042   1.082       .  S
C2031      C2032   1.373       .  A
C2031      H2043   1.082       .  S
C2032      H2044   1.082       .  S
C2033      C2034   1.372       .  A
C2033      H2045   1.082       .  S
C2034      H2046   1.082       .  S
C2035      C2036   1.372       .  A
C2035      H2047   1.083       .  S
C2036      H2048   1.082       .  S
C2037      C2273   1.485       .  S
C2038      C2241   1.481       .  S
C2039      C4505   1.477       .  S
C2040      C3033   1.490       .  S
C2051      C2193   1.476       .  S
C2051      N2052   1.358       .  A
C2051      N2056   1.355       .  A
N2052      C2053   1.360       .  A
C2053      C2225   1.476   1_554  S
C2053      N2054   1.358       .  A
N2054      C2055   1.357       .  A
C2055      C2209   1.473       .  S
C2055      N2056   1.354       .  A
N2057      C2062   1.354       .  A
N2057      C2061   1.352       .  A
N2057      H2089   1.033       .  S
N2058      C2065   1.349       .  A
N2058      C2066   1.353       .  A
N2059      C2064   1.351       .  A
N2059      C2063   1.354       .  A
N2059      H2090   1.029       .  S
N2060      C2067   1.351       .  A
N2060      C2068   1.349       .  A
C2061      C2069   1.389       .  A
C2061      C2077   1.416       .  A
C2062      C2078   1.413       .  A
C2062      C2070   1.386       .  A
C2063      C2071   1.388       .  A
C2063      C2080   1.417       .  A
C2064      C2079   1.414       .  A
C2064      C2072   1.387       .  A
C2065      C2077   1.413       .  A
C2065      C2073   1.386       .  A
C2066      C2080   1.417       .  A
C2066      C2074   1.386       .  A
C2067      C2075   1.385       .  A
C2067      C2078   1.410       .  A
C2068      C2076   1.387       .  A
C2068      C2079   1.412       .  A
C2069      C2070   1.373       .  A
C2069      H2081   1.082       .  S
C2070      H2082   1.082       .  S
C2071      C2072   1.371       .  A
C2071      H2083   1.081       .  S
C2072      H2084   1.082       .  S
C2073      C2074   1.374       .  A
C2073      H2085   1.082       .  S
C2074      H2086   1.082       .  S
C2075      C2076   1.374       .  A
C2075      H2087   1.082       .  S
C2076      H2088   1.082       .  S
C2077      C2201   1.476       .  S
C2078      C2265   1.481       .  S
C2079      C5081   1.472       .  S
C2080      C3937   1.487       .  S
N2091      C2096   1.352       .  A
N2091      C2095   1.353       .  A
N2091      H2123   1.036       .  S
N2092      C2099   1.351       .  A
N2092      C2100   1.350       .  A
N2093      C2098   1.351       .  A
N2093      C2097   1.351       .  A
N2093      H2124   1.037       .  S
N2094      C2101   1.350       .  A
N2094      C2102   1.351       .  A
C2095      C2103   1.387       .  A
C2095      C2111   1.414       .  A
C2096      C2112   1.415       .  A
C2096      C2104   1.388       .  A
C2097      C2105   1.387       .  A
C2097      C2114   1.413       .  A
C2098      C2113   1.411       .  A
C2098      C2106   1.387       .  A
C2099      C2111   1.412       .  A
C2099      C2107   1.386       .  A
C2100      C2114   1.415       .  A
C2100      C2108   1.387       .  A
C2101      C2109   1.386       .  A
C2101      C2112   1.412       .  A
C2102      C2110   1.387       .  A
C2102      C2113   1.414       .  A
C2103      C2104   1.375       .  A
C2103      H2115   1.082       .  S
C2104      H2116   1.082       .  S
C2105      C2106   1.372       .  A
C2105      H2117   1.082       .  S
C2106      H2118   1.080       .  S
C2107      C2108   1.372       .  A
C2107      H2119   1.082       .  S
C2108      H2120   1.082       .  S
C2109      C2110   1.372       .  A
C2109      H2121   1.082       .  S
C2110      H2122   1.082       .  S
C2111      C2353   1.483       .  S
C2112      C2233   1.480       .  S
C2113      C4185   1.481       .  S
C2114      C2393   1.486       .  S
N2125      C2130   1.350       .  A
N2125      C2129   1.350       .  A
N2125      H2157   1.037       .  S
N2126      C2133   1.351       .  A
N2126      C2134   1.350       .  A
N2127      C2132   1.351       .  A
N2127      C2131   1.354       .  A
N2127      H2158   1.038       .  S
N2128      C2135   1.350       .  A
N2128      C2136   1.348       .  A
C2129      C2137   1.386       .  A
C2129      C2145   1.409       .  A
C2130      C2146   1.412       .  A
C2130      C2138   1.388       .  A
C2131      C2139   1.388       .  A
C2131      C2148   1.417       .  A
C2132      C2147   1.410       .  A
C2132      C2140   1.385       .  A
C2133      C2145   1.410       .  A
C2133      C2141   1.385       .  A
C2134      C2148   1.414       .  A
C2134      C2142   1.387       .  A
C2135      C2143   1.385       .  A
C2135      C2146   1.409       .  A
C2136      C2144   1.387       .  A
C2136      C2147   1.409       .  A
C2137      C2138   1.373       .  A
C2137      H2149   1.082       .  S
C2138      H2150   1.082       .  S
C2139      C2140   1.374       .  A
C2139      H2151   1.081       .  S
C2140      H2152   1.082       .  S
C2141      C2142   1.373       .  A
C2141      H2153   1.082       .  S
C2142      H2154   1.082       .  S
C2143      C2144   1.373       .  A
C2143      H2155   1.082       .  S
C2144      H2156   1.082       .  S
C2145      C2313   1.477       .  S
C2146      C2217   1.476       .  S
C2147      C4345   1.472       .  S
C2148      C4025   1.492       .  S
N2159      C2164   1.353       .  A
N2159      C2163   1.350       .  A
N2159      H2191   1.037       .  S
N2160      C2167   1.351       .  A
N2160      C2168   1.352       .  A
N2161      C2166   1.352       .  A
N2161      C2165   1.353       .  A
N2161      H2192   1.039       .  S
N2162      C2169   1.351       .  A
N2162      C2170   1.347       .  A
C2163      C2171   1.389       .  A
C2163      C2179   1.413       .  A
C2164      C2180   1.411       .  A
C2164      C2172   1.386       .  A
C2165      C2173   1.387       .  A
C2165      C2182   1.412       .  A
C2166      C2181   1.412       .  A
C2166      C2174   1.387       .  A
C2167      C2179   1.412       .  A
C2167      C2175   1.386       .  A
C2168      C2182   1.414       .  A
C2168      C2176   1.386       .  A
C2169      C2177   1.385       .  A
C2169      C2180   1.408       .  A
C2170      C2178   1.388       .  A
C2170      C2181   1.410       .  A
C2171      C2172   1.374       .  A
C2171      H2183   1.082       .  S
C2172      H2184   1.082       .  S
C2173      C2174   1.374       .  A
C2173      H2185   1.082       .  S
C2174      H2186   1.082       .  S
C2175      C2176   1.374       .  A
C2175      H2187   1.082       .  S
C2176      H2188   1.082       .  S
C2177      C2178   1.372       .  A
C2177      H2189   1.082       .  S
C2178      H2190   1.082       .  S
C2179      C2297   1.475       .  S
C2180      C2377   1.480       .  S
C2181      C3577   1.476       .  S
C2182      C3657   1.486       .  S
C2193      C2194   1.406       .  A
C2193      C2198   1.406       .  A
C2194      C2195   1.392       .  A
C2194      H2203   1.083       .  S
C2195      C2196   1.398       .  A
C2195      H2204   1.084       .  S
C2196      C2202   1.398       .  A
C2196      C2197   1.415       .  A
C2197      C2199   1.404       .  A
C2197      C2198   1.403       .  A
C2198      H2205   1.084       .  S
C2199      C2200   1.398       .  A
C2199      H2206   1.084       .  S
C2200      C2201   1.402       .  A
C2200      H2207   1.083       .  S
C2201      C2202   1.399       .  A
C2202      H2208   1.085       .  S
C2209      C2210   1.406       .  A
C2209      C2214   1.404   1_545  A
C2210      C2211   1.394   1_545  A
C2210      H2219   1.083       .  S
C2211      C2212   1.400       .  A
C2211      H2220   1.084       .  S
C2212      C2218   1.398       .  A
C2212      C2213   1.415       .  A
C2213      C2215   1.403       .  A
C2213      C2214   1.401       .  A
C2214      H2221   1.084       .  S
C2215      C2216   1.396       .  A
C2215      H2222   1.084       .  S
C2216      C2217   1.402       .  A
C2216      H2223   1.083       .  S
C2217      C2218   1.400       .  A
C2218      H2224   1.085       .  S
C2225      C2226   1.406       .  A
C2225      C2230   1.405       .  A
C2226      C2227   1.396       .  A
C2226      H2235   1.083   1_556  S
C2227      C2228   1.401       .  A
C2227      H2236   1.084       .  S
C2228      C2234   1.401       .  A
C2228      C2229   1.415       .  A
C2229      C2231   1.402       .  A
C2229      C2230   1.401       .  A
C2230      H2237   1.084       .  S
C2231      C2232   1.396       .  A
C2231      H2238   1.084       .  S
C2232      C2233   1.402       .  A
C2232      H2239   1.083       .  S
C2233      C2234   1.402       .  A
C2234      H2240   1.084       .  S
C2241      C2242   1.402       .  A
C2241      C2246   1.402       .  A
C2242      C2243   1.397       .  A
C2242      H2251   1.083       .  S
C2243      C2244   1.404       .  A
C2243      H2252   1.084       .  S
C2244      C2250   1.402       .  A
C2244      C2245   1.414       .  A
C2245      C2247   1.401       .  A
C2245      C2246   1.400       .  A
C2246      H2253   1.085       .  S
C2247      C2248   1.396       .  A
C2247      H2254   1.084       .  S
C2248      C2249   1.406       .  A
C2248      H2255   1.083       .  S
C2249      C2250   1.407       .  A
C2250      H2256   1.084       .  S
C2257      C2258   1.409       .  A
C2257      C2262   1.407       .  A
C2258      C2259   1.394       .  A
C2258      H2267   1.083       .  S
C2259      C2260   1.398       .  A
C2259      H2268   1.084       .  S
C2260      C2266   1.402       .  A
C2260      C2261   1.415       .  A
C2261      C2263   1.403       .  A
C2261      C2262   1.406       .  A
C2262      H2269   1.084       .  S
C2263      C2264   1.398       .  A
C2263      H2270   1.083       .  S
C2264      C2265   1.402       .  A
C2264      H2271   1.083       .  S
C2265      C2266   1.401       .  A
C2266      H2272   1.085       .  S
C2273      C2274   1.404       .  A
C2273      C2278   1.403       .  A
C2274      C2275   1.398       .  A
C2274      H2283   1.083       .  S
C2275      C2276   1.403       .  A
C2275      H2284   1.084       .  S
C2276      C2282   1.403       .  A
C2276      C2277   1.414       .  A
C2277      C2279   1.400       .  A
C2277      C2278   1.400       .  A
C2278      H2285   1.085       .  S
C2279      C2280   1.395       .  A
C2279      H2286   1.084       .  S
C2280      C2281   1.405       .  A
C2280      H2287   1.083       .  S
C2281      C2282   1.407       .  A
C2282      H2288   1.084       .  S
C2289      C2290   1.407   1_455  A
C2289      C2294   1.407   1_455  A
C2290      C2291   1.395       .  A
C2290      H2299   1.083   1_655  S
C2291      C2292   1.400       .  A
C2291      H2300   1.084       .  S
C2292      C2298   1.400       .  A
C2292      C2293   1.415       .  A
C2293      C2295   1.403       .  A
C2293      C2294   1.401       .  A
C2294      H2301   1.084       .  S
C2295      C2296   1.396       .  A
C2295      H2302   1.084       .  S
C2296      C2297   1.401       .  A
C2296      H2303   1.083       .  S
C2297      C2298   1.400       .  A
C2298      H2304   1.085       .  S
C2305      C2306   1.405   1_545  A
C2305      C2310   1.405   1_545  A
C2306      C2307   1.396       .  A
C2306      H2315   1.083       .  S
C2307      C2308   1.401       .  A
C2307      H2316   1.084       .  S
C2308      C2314   1.401       .  A
C2308      C2309   1.415       .  A
C2309      C2311   1.402       .  A
C2309      C2310   1.401       .  A
C2310      H2317   1.084   1_565  S
C2311      C2312   1.396       .  A
C2311      H2318   1.084       .  S
C2312      C2313   1.401       .  A
C2312      H2319   1.083       .  S
C2313      C2314   1.401       .  A
C2314      H2320   1.084       .  S
C2321      C2322   1.408       .  A
C2321      C2326   1.407       .  A
C2322      C2323   1.394       .  A
C2322      H2331   1.083       .  S
C2323      C2324   1.398       .  A
C2323      H2332   1.084       .  S
C2324      C2330   1.401       .  A
C2324      C2325   1.415       .  A
C2325      C2327   1.404       .  A
C2325      C2326   1.406       .  A
C2326      H2333   1.084       .  S
C2327      C2328   1.398       .  A
C2327      H2334   1.083       .  S
C2328      C2329   1.402       .  A
C2328      H2335   1.083       .  S
C2329      C2330   1.399       .  A
C2330      H2336   1.084       .  S
C2337      C2338   1.409       .  A
C2337      C2342   1.407       .  A
C2338      C2339   1.396       .  A
C2338      H2347   1.083       .  S
C2339      C2340   1.400       .  A
C2339      H2348   1.084       .  S
C2340      C2346   1.404       .  A
C2340      C2341   1.415       .  A
C2341      C2343   1.403       .  A
C2341      C2342   1.405       .  A
C2342      H2349   1.084       .  S
C2343      C2344   1.397       .  A
C2343      H2350   1.083       .  S
C2344      C2345   1.402       .  A
C2344      H2351   1.083       .  S
C2345      C2346   1.402       .  A
C2346      H2352   1.084       .  S
C2353      C2354   1.403       .  A
C2353      C2358   1.401       .  A
C2354      C2355   1.398       .  A
C2354      H2363   1.083       .  S
C2355      C2356   1.404       .  A
C2355      H2364   1.083       .  S
C2356      C2362   1.406       .  A
C2356      C2357   1.415       .  A
C2357      C2359   1.399       .  A
C2357      C2358   1.402       .  A
C2358      H2365   1.085       .  S
C2359      C2360   1.395       .  A
C2359      H2366   1.084       .  S
C2360      C2361   1.408       .  A
C2360      H2367   1.083       .  S
C2361      C2362   1.408       .  A
C2362      H2368   1.084       .  S
C2369      C2370   1.407       .  A
C2369      C2374   1.407       .  A
C2370      C2371   1.397       .  A
C2370      H2379   1.083       .  S
C2371      C2372   1.401       .  A
C2371      H2380   1.084       .  S
C2372      C2378   1.403       .  A
C2372      C2373   1.414       .  A
C2373      C2375   1.403       .  A
C2373      C2374   1.402       .  A
C2374      H2381   1.084       .  S
C2375      C2376   1.397       .  A
C2375      H2382   1.084       .  S
C2376      C2377   1.401       .  A
C2376      H2383   1.083       .  S
C2377      C2378   1.403       .  A
C2378      H2384   1.084       .  S
C2385      C2386   1.401       .  A
C2385      C2390   1.403       .  A
C2386      C2387   1.401       .  A
C2386      H2395   1.083       .  S
C2387      C2388   1.406       .  A
C2387      H2396   1.083       .  S
C2388      C2394   1.402       .  A
C2388      C2389   1.413       .  A
C2389      C2391   1.401       .  A
C2389      C2390   1.395       .  A
C2390      H2397   1.085       .  S
C2391      C2392   1.393       .  A
C2391      H2398   1.084       .  S
C2392      C2393   1.403       .  A
C2392      H2399   1.083       .  S
C2393      C2394   1.408       .  A
C2394      H2400   1.084       .  S
C2401      C2402   1.402       .  A
C2401      C2406   1.402       .  A
C2402      C2403   1.398       .  A
C2402      H2411   1.083       .  S
C2403      C2404   1.404       .  A
C2403      H2412   1.084       .  S
C2404      C2410   1.403       .  A
C2404      C2405   1.414       .  A
C2405      C2407   1.402       .  A
C2405      C2406   1.402       .  A
C2406      H2413   1.084       .  S
C2407      C2408   1.397       .  A
C2407      H2414   1.083       .  S
C2408      C2409   1.404       .  A
C2408      H2415   1.083       .  S
C2409      C2410   1.409       .  A
C2410      H2416   1.084       .  S
C2417      C2418   1.407       .  A
C2417      C2422   1.409       .  A
C2418      C2419   1.399       .  A
C2418      H2427   1.083       .  S
C2419      C2420   1.402       .  A
C2419      H2428   1.084       .  S
C2420      C2426   1.405       .  A
C2420      C2421   1.414       .  A
C2421      C2423   1.403       .  A
C2421      C2422   1.404       .  A
C2422      H2429   1.084       .  S
C2423      C2424   1.398       .  A
C2423      H2430   1.084       .  S
C2424      C2425   1.403       .  A
C2424      H2431   1.083       .  S
C2425      C2426   1.404       .  A
C2426      H2432   1.084       .  S
C2433      C2434   1.403       .  A
C2433      C2438   1.404       .  A
C2434      C2435   1.400       .  A
C2434      H2443   1.083       .  S
C2435      C2436   1.405       .  A
C2435      H2444   1.083       .  S
C2436      C2442   1.407       .  A
C2436      C2437   1.414       .  A
C2437      C2439   1.401       .  A
C2437      C2438   1.404       .  A
C2438      H2445   1.084       .  S
C2439      C2440   1.398       .  A
C2439      H2446   1.084       .  S
C2440      C2441   1.407       .  A
C2440      H2447   1.083       .  S
C2441      C2442   1.409       .  A
C2442      H2448   1.084       .  S
C2449      C2450   1.408       .  A
C2449      C2454   1.409       .  A
C2450      C2451   1.398       .  A
C2450      H2459   1.083       .  S
C2451      C2452   1.401       .  A
C2451      H2460   1.084       .  S
C2452      C2458   1.407       .  A
C2452      C2453   1.415       .  A
C2453      C2455   1.404       .  A
C2453      C2454   1.408       .  A
C2454      H2461   1.084       .  S
C2455      C2456   1.399       .  A
C2455      H2462   1.083       .  S
C2456      C2457   1.403       .  A
C2456      H2463   1.083       .  S
C2457      C2458   1.404       .  A
C2458      H2464   1.084       .  S
C2465      C2466   1.403       .  A
C2465      C2470   1.403       .  A
C2466      C2467   1.399       .  A
C2466      H2475   1.083       .  S
C2467      C2468   1.404       .  A
C2467      H2476   1.083       .  S
C2468      C2474   1.406       .  A
C2468      C2469   1.414       .  A
C2469      C2471   1.400       .  A
C2469      C2470   1.403       .  A
C2470      H2477   1.084       .  S
C2471      C2472   1.395       .  A
C2471      H2478   1.084       .  S
C2472      C2473   1.408       .  A
C2472      H2479   1.083       .  S
C2473      C2474   1.409       .  A
C2474      H2480   1.084       .  S
C2481      C2482   1.402       .  A
C2481      C2486   1.403       .  A
C2482      C2483   1.398       .  A
C2482      H2491   1.083       .  S
C2483      C2484   1.404       .  A
C2483      H2492   1.083       .  S
C2484      C2490   1.405       .  A
C2484      C2485   1.414       .  A
C2485      C2487   1.400       .  A
C2485      C2486   1.403       .  A
C2486      H2493   1.084       .  S
C2487      C2488   1.397       .  A
C2487      H2494   1.084       .  S
C2488      C2489   1.408       .  A
C2488      H2495   1.083       .  S
C2489      C2490   1.409       .  A
C2490      H2496   1.084       .  S
C2497      C2498   1.402       .  A
C2497      C2502   1.401       .  A
C2498      C2499   1.399       .  A
C2498      H2507   1.083       .  S
C2499      C2500   1.404       .  A
C2499      H2508   1.083       .  S
C2500      C2506   1.407       .  A
C2500      C2501   1.415       .  A
C2501      C2503   1.399       .  A
C2501      C2502   1.403       .  A
C2502      H2509   1.084       .  S
C2503      C2504   1.395       .  A
C2503      H2510   1.084       .  S
C2504      C2505   1.408       .  A
C2504      H2511   1.083       .  S
C2505      C2506   1.409       .  A
C2506      H2512   1.084       .  S
C2513      C2514   1.402       .  A
C2513      C2518   1.402       .  A
C2514      C2515   1.395       .  A
C2514      H2523   1.083       .  S
C2515      C2516   1.401       .  A
C2515      H2524   1.084       .  S
C2516      C2522   1.403       .  A
C2516      C2517   1.415       .  A
C2517      C2519   1.401       .  A
C2517      C2518   1.405       .  A
C2518      H2525   1.084       .  S
C2519      C2520   1.397       .  A
C2519      H2526   1.084       .  S
C2520      C2521   1.408       .  A
C2520      H2527   1.083       .  S
C2521      C2522   1.405       .  A
C2522      H2528   1.084       .  S
C2529      C2530   1.408       .  A
C2529      C2534   1.408       .  A
C2530      C2531   1.400       .  A
C2530      H2539   1.083       .  S
C2531      C2532   1.403       .  A
C2531      H2540   1.084       .  S
C2532      C2538   1.406       .  A
C2532      C2533   1.414       .  A
C2533      C2535   1.402       .  A
C2533      C2534   1.402       .  A
C2534      H2541   1.084       .  S
C2535      C2536   1.396       .  A
C2535      H2542   1.084       .  S
C2536      C2537   1.401       .  A
C2536      H2543   1.083       .  S
C2537      C2538   1.404       .  A
C2538      H2544   1.084       .  S
C2545      C2546   1.401       .  A
C2545      C2550   1.402       .  A
C2546      C2547   1.396       .  A
C2546      H2555   1.083       .  S
C2547      C2548   1.403       .  A
C2547      H2556   1.084       .  S
C2548      C2554   1.402       .  A
C2548      C2549   1.414       .  A
C2549      C2551   1.401       .  A
C2549      C2550   1.403       .  A
C2550      H2557   1.084       .  S
C2551      C2552   1.398       .  A
C2551      H2558   1.084       .  S
C2552      C2553   1.407       .  A
C2552      H2559   1.083       .  S
C2553      C2554   1.408       .  A
C2554      H2560   1.084       .  S
C2561      C2562   1.407       .  A
C2561      C2566   1.407       .  A
C2562      C2563   1.396       .  A
C2562      H2571   1.083       .  S
C2563      C2564   1.401       .  A
C2563      H2572   1.084       .  S
C2564      C2570   1.401       .  A
C2564      C2565   1.414       .  A
C2565      C2567   1.403       .  A
C2565      C2566   1.401       .  A
C2566      H2573   1.084       .  S
C2567      C2568   1.396       .  A
C2567      H2574   1.084       .  S
C2568      C2569   1.401       .  A
C2568      H2575   1.083       .  S
C2569      C2570   1.402       .  A
C2570      H2576   1.084       .  S
C2577      C2578   1.401       .  A
C2577      C2582   1.401       .  A
C2578      C2579   1.395       .  A
C2578      H2587   1.083       .  S
C2579      C2580   1.402       .  A
C2579      H2588   1.084       .  S
C2580      C2586   1.401       .  A
C2580      C2581   1.415       .  A
C2581      C2583   1.401       .  A
C2581      C2582   1.402       .  A
C2582      H2589   1.084       .  S
C2583      C2584   1.396       .  A
C2583      H2590   1.084       .  S
C2584      C2585   1.407       .  A
C2584      H2591   1.083       .  S
C2585      C2586   1.406       .  A
C2586      H2592   1.084       .  S
C2593      C2594   1.407       .  A
C2593      C2598   1.408       .  A
C2594      C2595   1.394       .  A
C2594      H2603   1.083       .  S
C2595      C2596   1.399       .  A
C2595      H2604   1.084       .  S
C2596      C2602   1.399       .  A
C2596      C2597   1.414       .  A
C2597      C2599   1.404       .  A
C2597      C2598   1.403       .  A
C2598      H2605   1.084       .  S
C2599      C2600   1.399       .  A
C2599      H2606   1.084       .  S
C2600      C2601   1.403       .  A
C2600      H2607   1.083       .  S
C2601      C2602   1.401       .  A
C2602      H2608   1.085       .  S
C2609      C2610   1.404       .  A
C2609      C2614   1.409       .  A
C2610      C2611   1.393       .  A
C2610      H2619   1.083       .  S
C2611      C2612   1.401       .  A
C2611      H2620   1.084       .  S
C2612      C2618   1.398       .  A
C2612      C2613   1.413       .  A
C2613      C2615   1.407       .  A
C2613      C2614   1.407       .  A
C2614      H2621   1.084       .  S
C2615      C2616   1.403       .  A
C2615      H2622   1.083       .  S
C2616      C2617   1.403       .  A
C2616      H2623   1.083       .  S
C2617      C2618   1.404       .  A
C2618      H2624   1.085       .  S
C2625      C2626   1.406       .  A
C2625      C2630   1.407       .  A
C2626      C2627   1.398       .  A
C2626      H2635   1.083       .  S
C2627      C2628   1.402       .  A
C2627      H2636   1.084       .  S
C2628      C2634   1.402       .  A
C2628      C2629   1.414       .  A
C2629      C2631   1.403       .  A
C2629      C2630   1.401       .  A
C2630      H2637   1.084       .  S
C2631      C2632   1.395       .  A
C2631      H2638   1.084       .  S
C2632      C2633   1.400       .  A
C2632      H2639   1.083       .  S
C2633      C2634   1.402       .  A
C2634      H2640   1.084       .  S
C2641      C2642   1.403       .  A
C2641      C2646   1.401       .  A
C2642      C2643   1.397       .  A
C2642      H2651   1.083       .  S
C2643      C2644   1.403       .  A
C2643      H2652   1.084       .  S
C2644      C2650   1.403       .  A
C2644      C2645   1.415       .  A
C2645      C2647   1.400       .  A
C2645      C2646   1.401       .  A
C2646      H2653   1.084       .  S
C2647      C2648   1.395       .  A
C2647      H2654   1.084       .  S
C2648      C2649   1.405       .  A
C2648      H2655   1.083       .  S
C2649      C2650   1.405       .  A
C2650      H2656   1.084       .  S
C2657      C2658   1.403       .  A
C2657      C2662   1.404       .  A
C2658      C2659   1.395       .  A
C2658      H2667   1.083       .  S
C2659      C2660   1.402       .  A
C2659      H2668   1.084       .  S
C2660      C2666   1.402       .  A
C2660      C2661   1.415       .  A
C2661      C2663   1.402       .  A
C2661      C2662   1.404       .  A
C2662      H2669   1.084       .  S
C2663      C2664   1.397       .  A
C2663      H2670   1.084       .  S
C2664      C2665   1.406       .  A
C2664      H2671   1.083       .  S
C2665      C2666   1.405       .  A
C2666      H2672   1.084       .  S
C2673      C2674   1.402       .  A
C2673      C2678   1.403       .  A
C2674      C2675   1.398       .  A
C2674      H2683   1.083       .  S
C2675      C2676   1.404       .  A
C2675      H2684   1.084       .  S
C2676      C2682   1.403       .  A
C2676      C2677   1.414       .  A
C2677      C2679   1.402       .  A
C2677      C2678   1.404       .  A
C2678      H2685   1.084       .  S
C2679      C2680   1.399       .  A
C2679      H2686   1.083       .  S
C2680      C2681   1.406       .  A
C2680      H2687   1.083       .  S
C2681      C2682   1.410       .  A
C2682      H2688   1.084       .  S
C2689      C2690   1.407       .  A
C2689      C2694   1.410       .  A
C2690      C2691   1.400       .  A
C2690      H2699   1.083       .  S
C2691      C2692   1.402       .  A
C2691      H2700   1.083       .  S
C2692      C2698   1.408       .  A
C2692      C2693   1.414       .  A
C2693      C2695   1.404       .  A
C2693      C2694   1.407       .  A
C2694      H2701   1.084       .  S
C2695      C2696   1.398       .  A
C2695      H2702   1.084       .  S
C2696      C2697   1.403       .  A
C2696      H2703   1.083       .  S
C2697      C2698   1.404       .  A
C2698      H2704   1.084       .  S
C2705      C2706   1.402       .  A
C2705      C2710   1.406       .  A
C2706      C2707   1.397       .  A
C2706      H2715   1.083       .  S
C2707      C2708   1.403       .  A
C2707      H2716   1.083       .  S
C2708      C2714   1.404       .  A
C2708      C2709   1.414       .  A
C2709      C2711   1.403       .  A
C2709      C2710   1.407       .  A
C2710      H2717   1.084       .  S
C2711      C2712   1.400       .  A
C2711      H2718   1.084       .  S
C2712      C2713   1.407       .  A
C2712      H2719   1.083       .  S
C2713      C2714   1.409       .  A
C2714      H2720   1.084       .  S
C2721      C2722   1.407       .  A
C2721      C2726   1.410       .  A
C2722      C2723   1.398       .  A
C2722      H2731   1.083       .  S
C2723      C2724   1.401       .  A
C2723      H2732   1.084       .  S
C2724      C2730   1.407       .  A
C2724      C2725   1.415       .  A
C2725      C2727   1.404       .  A
C2725      C2726   1.409       .  A
C2726      H2733   1.084       .  S
C2727      C2728   1.400       .  A
C2727      H2734   1.083       .  S
C2728      C2729   1.404       .  A
C2728      H2735   1.083       .  S
C2729      C2730   1.405       .  A
C2730      H2736   1.084       .  S
C2737      C2738   1.404       .  A
C2737      C2742   1.403       .  A
C2738      C2739   1.400       .  A
C2738      H2747   1.083       .  S
C2739      C2740   1.404       .  A
C2739      H2748   1.083       .  S
C2740      C2746   1.408       .  A
C2740      C2741   1.415       .  A
C2741      C2743   1.399       .  A
C2741      C2742   1.404       .  A
C2742      H2749   1.085       .  S
C2743      C2744   1.396       .  A
C2743      H2750   1.084       .  S
C2744      C2745   1.409       .  A
C2744      H2751   1.083       .  S
C2745      C2746   1.409       .  A
C2746      H2752   1.084       .  S
C2753      C2754   1.409       .  A
C2753      C2758   1.409       .  A
C2754      C2755   1.395       .  A
C2754      H2763   1.083       .  S
C2755      C2756   1.398       .  A
C2755      H2764   1.084       .  S
C2756      C2762   1.405       .  A
C2756      C2757   1.416       .  A
C2757      C2759   1.404       .  A
C2757      C2758   1.410       .  A
C2758      H2765   1.084       .  S
C2759      C2760   1.400       .  A
C2759      H2766   1.083       .  S
C2760      C2761   1.403       .  A
C2760      H2767   1.083       .  S
C2761      C2762   1.401       .  A
C2762      H2768   1.084       .  S
C2769      C2770   1.404       .  A
C2769      C2774   1.403       .  A
C2770      C2771   1.400       .  A
C2770      H2779   1.083       .  S
C2771      C2772   1.404       .  A
C2771      H2780   1.083       .  S
C2772      C2778   1.409       .  A
C2772      C2773   1.415       .  A
C2773      C2775   1.399       .  A
C2773      C2774   1.404       .  A
C2774      H2781   1.084       .  S
C2775      C2776   1.395       .  A
C2775      H2782   1.084       .  S
C2776      C2777   1.408       .  A
C2776      H2783   1.083       .  S
C2777      C2778   1.409       .  A
C2778      H2784   1.084       .  S
C2785      C2786   1.403       .  A
C2785      C2790   1.402       .  A
C2786      C2787   1.398       .  A
C2786      H2795   1.083       .  S
C2787      C2788   1.403       .  A
C2787      H2796   1.083       .  S
C2788      C2794   1.406       .  A
C2788      C2789   1.415       .  A
C2789      C2791   1.400       .  A
C2789      C2790   1.404       .  A
C2790      H2797   1.084       .  S
C2791      C2792   1.396   1_655  A
C2791      H2798   1.084       .  S
C2792      C2793   1.407       .  A
C2792      H2799   1.083       .  S
C2793      C2794   1.407   1_455  A
C2794      H2800   1.084       .  S
C2801      C2802   1.408       .  A
C2801      C2806   1.410       .  A
C2802      C2803   1.397       .  A
C2802      H2811   1.083       .  S
C2803      C2804   1.401       .  A
C2803      H2812   1.084       .  S
C2804      C2810   1.405       .  A
C2804      C2805   1.414       .  A
C2805      C2807   1.404       .  A
C2805      C2806   1.408       .  A
C2806      H2813   1.084       .  S
C2807      C2808   1.400       .  A
C2807      H2814   1.083       .  S
C2808      C2809   1.403       .  A
C2808      H2815   1.083       .  S
C2809      C2810   1.403       .  A
C2810      H2816   1.084       .  S
C2817      C2818   1.402       .  A
C2817      C2822   1.404       .  A
C2818      C2819   1.394       .  A
C2818      H2827   1.083       .  S
C2819      C2820   1.401       .  A
C2819      H2828   1.084       .  S
C2820      C2826   1.399       .  A
C2820      C2821   1.415       .  A
C2821      C2823   1.405       .  A
C2821      C2822   1.404       .  A
C2822      H2829   1.084       .  S
C2823      C2824   1.400       .  A
C2823      H2830   1.083       .  S
C2824      C2825   1.402       .  A
C2824      H2831   1.083       .  S
C2825      C2826   1.402       .  A
C2826      H2832   1.085       .  S
C2833      C2834   1.410       .  A
C2833      C2838   1.405       .  A
C2834      C2835   1.394       .  A
C2834      H2843   1.083       .  S
C2835      C2836   1.398       .  A
C2835      H2844   1.084       .  S
C2836      C2842   1.402       .  A
C2836      C2837   1.416       .  A
C2837      C2839   1.402       .  A
C2837      C2838   1.405       .  A
C2838      H2845   1.084       .  S
C2839      C2840   1.397       .  A
C2839      H2846   1.083       .  S
C2840      C2841   1.402       .  A
C2840      H2847   1.083       .  S
C2841      C2842   1.400       .  A
C2842      H2848   1.085       .  S
C2849      C2850   1.406       .  A
C2849      C2854   1.407       .  A
C2850      C2851   1.401       .  A
C2850      H2859   1.083       .  S
C2851      C2852   1.404       .  A
C2851      H2860   1.083       .  S
C2852      C2858   1.405       .  A
C2852      C2853   1.413       .  A
C2853      C2855   1.402       .  A
C2853      C2854   1.398       .  A
C2854      H2861   1.084       .  S
C2855      C2856   1.393       .  A
C2855      H2862   1.084       .  S
C2856      C2857   1.401       .  A
C2856      H2863   1.083       .  S
C2857      C2858   1.404       .  A
C2858      H2864   1.084       .  S
C2865      C2866   1.408       .  A
C2865      C2870   1.407       .  A
C2866      C2867   1.401       .  A
C2866      H2875   1.083       .  S
C2867      C2868   1.403       .  A
C2867      H2876   1.084       .  S
C2868      C2874   1.409       .  A
C2868      C2869   1.414       .  A
C2869      C2871   1.402       .  A
C2869      C2870   1.404       .  A
C2870      H2877   1.084       .  S
C2871      C2872   1.396       .  A
C2871      H2878   1.084       .  S
C2872      C2873   1.402       .  A
C2872      H2879   1.083       .  S
C2873      C2874   1.406       .  A
C2874      H2880   1.084       .  S
C2881      C2882   1.410       .  A
C2881      C2886   1.407       .  A
C2882      C2883   1.392       .  A
C2882      H2891   1.083       .  S
C2883      C2884   1.397       .  A
C2883      H2892   1.084       .  S
C2884      C2890   1.402       .  A
C2884      C2885   1.416       .  A
C2885      C2887   1.403       .  A
C2885      C2886   1.408       .  A
C2886      H2893   1.084       .  S
C2887      C2888   1.399       .  A
C2887      H2894   1.083       .  S
C2888      C2889   1.404       .  A
C2888      H2895   1.083       .  S
C2889      C2890   1.399       .  A
C2890      H2896   1.085       .  S
C2897      C2898   1.402       .  A
C2897      C2902   1.401       .  A
C2898      C2899   1.397       .  A
C2898      H2907   1.083       .  S
C2899      C2900   1.403       .  A
C2899      H2908   1.083       .  S
C2900      C2906   1.404       .  A
C2900      C2901   1.415       .  A
C2901      C2903   1.400       .  A
C2901      C2902   1.401       .  A
C2902      H2909   1.085       .  S
C2903      C2904   1.395       .  A
C2903      H2910   1.084       .  S
C2904      C2905   1.407       .  A
C2904      H2911   1.083       .  S
C2905      C2906   1.406       .  A
C2906      H2912   1.084       .  S
C2913      C2914   1.404       .  A
C2913      C2918   1.403       .  A
C2914      C2915   1.402       .  A
C2914      H2923   1.083       .  S
C2915      C2916   1.405       .  A
C2915      H2924   1.083       .  S
C2916      C2922   1.411       .  A
C2916      C2917   1.415       .  A
C2917      C2919   1.399       .  A
C2917      C2918   1.406       .  A
C2918      H2925   1.084       .  S
C2919      C2920   1.396       .  A
C2919      H2926   1.084       .  S
C2920      C2921   1.408       .  A
C2920      H2927   1.083       .  S
C2921      C2922   1.410       .  A
C2922      H2928   1.084       .  S
C2929      C2930   1.407       .  A
C2929      C2934   1.410       .  A
C2930      C2931   1.396       .  A
C2930      H2939   1.083       .  S
C2931      C2932   1.400       .  A
C2931      H2940   1.084       .  S
C2932      C2938   1.402       .  A
C2932      C2933   1.414       .  A
C2933      C2935   1.405       .  A
C2933      C2934   1.406       .  A
C2934      H2941   1.084       .  S
C2935      C2936   1.400       .  A
C2935      H2942   1.084       .  S
C2936      C2937   1.403       .  A
C2936      H2943   1.083       .  S
C2937      C2938   1.401       .  A
C2938      H2944   1.084       .  S
C2945      C2946   1.407       .  A
C2945      C2950   1.409       .  A
C2946      C2947   1.396       .  A
C2946      H2955   1.083       .  S
C2947      C2948   1.400       .  A
C2947      H2956   1.084       .  S
C2948      C2954   1.402       .  A
C2948      C2949   1.415       .  A
C2949      C2951   1.404       .  A
C2949      C2950   1.405       .  A
C2950      H2957   1.084   1_565  S
C2951      C2952   1.398       .  A
C2951      H2958   1.084       .  S
C2952      C2953   1.402       .  A
C2952      H2959   1.083       .  S
C2953      C2954   1.401       .  A
C2954      H2960   1.084       .  S
C2961      C2962   1.408       .  A
C2961      C2966   1.409       .  A
C2962      C2963   1.398       .  A
C2962      H2971   1.083       .  S
C2963      C2964   1.401       .  A
C2963      H2972   1.084       .  S
C2964      C2970   1.406       .  A
C2964      C2965   1.415       .  A
C2965      C2967   1.404       .  A
C2965      C2966   1.407       .  A
C2966      H2973   1.084       .  S
C2967      C2968   1.399       .  A
C2967      H2974   1.083       .  S
C2968      C2969   1.402       .  A
C2968      H2975   1.083       .  S
C2969      C2970   1.404       .  A
C2970      H2976   1.084       .  S
C2977      C2978   1.403       .  A
C2977      C2982   1.399       .  A
C2978      C2979   1.398       .  A
C2978      H2987   1.083       .  S
C2979      C2980   1.403       .  A
C2979      H2988   1.083       .  S
C2980      C2986   1.406       .  A
C2980      C2981   1.416       .  A
C2981      C2983   1.397       .  A
C2981      C2982   1.401       .  A
C2982      H2989   1.085       .  S
C2983      C2984   1.392       .  A
C2983      H2990   1.084       .  S
C2984      C2985   1.409       .  A
C2984      H2991   1.083       .  S
C2985      C2986   1.406       .  A
C2986      H2992   1.084       .  S
C2993      C2994   1.406       .  A
C2993      C2998   1.408       .  A
C2994      C2995   1.400       .  A
C2994      H3003   1.083       .  S
C2995      C2996   1.403       .  A
C2995      H3004   1.084       .  S
C2996      C3002   1.403       .  A
C2996      C2997   1.413       .  A
C2997      C2999   1.403       .  A
C2997      C2998   1.399       .  A
C2998      H3005   1.084       .  S
C2999      C3000   1.395       .  A
C2999      H3006   1.084       .  S
C3000      C3001   1.401       .  A
C3000      H3007   1.083       .  S
C3001      C3002   1.404       .  A
C3002      H3008   1.084       .  S
C3009      C3010   1.406       .  A
C3009      C3014   1.406   1_545  A
C3010      C3011   1.397   1_545  A
C3010      H3019   1.083       .  S
C3011      C3012   1.402       .  A
C3011      H3020   1.084       .  S
C3012      C3018   1.402       .  A
C3012      C3013   1.414       .  A
C3013      C3015   1.402       .  A
C3013      C3014   1.399       .  A
C3014      H3021   1.084   1_565  S
C3015      C3016   1.395       .  A
C3015      H3022   1.084       .  S
C3016      C3017   1.401       .  A
C3016      H3023   1.083       .  S
C3017      C3018   1.403       .  A
C3018      H3024   1.084       .  S
C3025      C3026   1.404       .  A
C3025      C3030   1.407       .  A
C3026      C3027   1.402       .  A
C3026      H3035   1.083       .  S
C3027      C3028   1.405       .  A
C3027      H3036   1.083       .  S
C3028      C3034   1.406       .  A
C3028      C3029   1.413       .  A
C3029      C3031   1.402       .  A
C3029      C3030   1.401       .  A
C3030      H3037   1.085       .  S
C3031      C3032   1.395       .  A
C3031      H3038   1.084       .  S
C3032      C3033   1.404       .  A
C3032      H3039   1.083       .  S
C3033      C3034   1.407       .  A
C3034      H3040   1.084       .  S
C3041      C3042   1.404       .  A
C3041      C3046   1.410       .  A
C3042      C3043   1.393       .  A
C3042      H3051   1.083       .  S
C3043      C3044   1.401       .  A
C3043      H3052   1.084       .  S
C3044      C3050   1.398       .  A
C3044      C3045   1.413       .  A
C3045      C3047   1.407       .  A
C3045      C3046   1.407       .  A
C3046      H3053   1.084       .  S
C3047      C3048   1.403       .  A
C3047      H3054   1.083       .  S
C3048      C3049   1.403       .  A
C3048      H3055   1.083       .  S
C3049      C3050   1.406       .  A
C3050      H3056   1.085       .  S
C3057      C3058   1.403       .  A
C3057      C3062   1.405       .  A
C3058      C3059   1.403       .  A
C3058      H3067   1.083       .  S
C3059      C3060   1.407       .  A
C3059      H3068   1.083       .  S
C3060      C3066   1.407       .  A
C3060      C3061   1.413       .  A
C3061      C3063   1.401       .  A
C3061      C3062   1.400       .  A
C3062      H3069   1.085       .  S
C3063      C3064   1.395       .  A
C3063      H3070   1.084       .  S
C3064      C3065   1.404       .  A
C3064      H3071   1.083       .  S
C3065      C3066   1.408       .  A
C3066      H3072   1.084       .  S
C3073      C3074   1.402       .  A
C3073      C3078   1.403       .  A
C3074      C3075   1.395       .  A
C3074      H3083   1.083       .  S
C3075      C3076   1.402       .  A
C3075      H3084   1.084       .  S
C3076      C3082   1.402       .  A
C3076      C3077   1.415       .  A
C3077      C3079   1.401       .  A
C3077      C3078   1.405       .  A
C3078      H3085   1.084       .  S
C3079      C3080   1.398       .  A
C3079      H3086   1.084       .  S
C3080      C3081   1.408       .  A
C3080      H3087   1.083       .  S
C3081      C3082   1.407       .  A
C3082      H3088   1.084       .  S
C3089      C3090   1.403       .  A
C3089      C3094   1.408       .  A
C3090      C3091   1.392       .  A
C3090      H3099   1.083       .  S
C3091      C3092   1.400       .  A
C3091      H3100   1.084       .  S
C3092      C3098   1.396       .  A
C3092      C3093   1.413       .  A
C3093      C3095   1.407       .  A
C3093      C3094   1.406       .  A
C3094      H3101   1.084       .  S
C3095      C3096   1.403       .  A
C3095      H3102   1.083       .  S
C3096      C3097   1.402       .  A
C3096      H3103   1.083       .  S
C3097      C3098   1.404       .  A
C3098      H3104   1.085       .  S
C3105      C3106   1.408       .  A
C3105      C3110   1.408       .  A
C3106      C3107   1.397       .  A
C3106      H3115   1.083       .  S
C3107      C3108   1.401       .  A
C3107      H3116   1.084       .  S
C3108      C3114   1.405       .  A
C3108      C3109   1.415       .  A
C3109      C3111   1.404       .  A
C3109      C3110   1.406       .  A
C3110      H3117   1.084       .  S
C3111      C3112   1.399       .  A
C3111      H3118   1.083       .  S
C3112      C3113   1.402       .  A
C3112      H3119   1.083       .  S
C3113      C3114   1.404       .  A
C3114      H3120   1.084       .  S
C3121      C3122   1.408       .  A
C3121      C3126   1.407       .  A
C3122      C3123   1.399       .  A
C3122      H3131   1.083       .  S
C3123      C3124   1.402       .  A
C3123      H3132   1.084       .  S
C3124      C3130   1.404       .  A
C3124      C3125   1.414       .  A
C3125      C3127   1.402       .  A
C3125      C3126   1.401       .  A
C3126      H3133   1.084       .  S
C3127      C3128   1.394       .  A
C3127      H3134   1.084       .  S
C3128      C3129   1.401       .  A
C3128      H3135   1.083       .  S
C3129      C3130   1.403       .  A
C3130      H3136   1.084       .  S
C3137      C3138   1.403       .  A
C3137      C3142   1.402       .  A
C3138      C3139   1.398       .  A
C3138      H3147   1.083       .  S
C3139      C3140   1.403       .  A
C3139      H3148   1.084       .  S
C3140      C3146   1.403       .  A
C3140      C3141   1.414       .  A
C3141      C3143   1.400       .  A
C3141      C3142   1.401       .  A
C3142      H3149   1.084       .  S
C3143      C3144   1.396       .  A
C3143      H3150   1.084       .  S
C3144      C3145   1.407       .  A
C3144      H3151   1.083       .  S
C3145      C3146   1.408       .  A
C3146      H3152   1.084       .  S
C3153      C3154   1.401       .  A
C3153      C3158   1.400       .  A
C3154      C3155   1.395       .  A
C3154      H3163   1.083       .  S
C3155      C3156   1.402       .  A
C3155      H3164   1.083       .  S
C3156      C3162   1.401       .  A
C3156      C3157   1.415       .  A
C3157      C3159   1.400       .  A
C3157      C3158   1.400       .  A
C3158      H3165   1.085       .  S
C3159      C3160   1.395       .  A
C3159      H3166   1.084       .  S
C3160      C3161   1.408       .  A
C3160      H3167   1.083       .  S
C3161      C3162   1.405       .  A
C3162      H3168   1.084       .  S
C3169      C3170   1.409       .  A
C3169      C3174   1.406       .  A
C3170      C3171   1.393       .  A
C3170      H3179   1.083       .  S
C3171      C3172   1.398       .  A
C3171      H3180   1.084       .  S
C3172      C3178   1.399       .  A
C3172      C3173   1.415       .  A
C3173      C3175   1.403       .  A
C3173      C3174   1.404       .  A
C3174      H3181   1.084       .  S
C3175      C3176   1.398       .  A
C3175      H3182   1.083       .  S
C3176      C3177   1.401       .  A
C3176      H3183   1.083       .  S
C3177      C3178   1.399       .  A
C3178      H3184   1.085       .  S
C3185      C3186   1.406       .  A
C3185      C3190   1.407       .  A
C3186      C3187   1.395       .  A
C3186      H3195   1.083       .  S
C3187      C3188   1.400       .  A
C3187      H3196   1.084       .  S
C3188      C3194   1.398       .  A
C3188      C3189   1.414       .  A
C3189      C3191   1.403       .  A
C3189      C3190   1.399       .  A
C3190      H3197   1.084       .  S
C3191      C3192   1.395       .  A
C3191      H3198   1.084       .  S
C3192      C3193   1.400       .  A
C3192      H3199   1.083       .  S
C3193      C3194   1.400       .  A
C3194      H3200   1.085       .  S
C3201      C3202   1.407       .  A
C3201      C3206   1.407       .  A
C3202      C3203   1.396       .  A
C3202      H3211   1.083       .  S
C3203      C3204   1.400       .  A
C3203      H3212   1.084       .  S
C3204      C3210   1.401       .  A
C3204      C3205   1.414       .  A
C3205      C3207   1.403       .  A
C3205      C3206   1.402       .  A
C3206      H3213   1.084       .  S
C3207      C3208   1.397       .  A
C3207      H3214   1.084       .  S
C3208      C3209   1.401       .  A
C3208      H3215   1.083       .  S
C3209      C3210   1.401       .  A
C3210      H3216   1.084       .  S
C3217      C3218   1.407       .  A
C3217      C3222   1.405       .  A
C3218      C3219   1.395       .  A
C3218      H3227   1.083   1_556  S
C3219      C3220   1.400       .  A
C3219      H3228   1.084       .  S
C3220      C3226   1.401       .  A
C3220      C3221   1.415       .  A
C3221      C3223   1.402       .  A
C3221      C3222   1.401       .  A
C3222      H3229   1.084       .  S
C3223      C3224   1.395       .  A
C3223      H3230   1.084       .  S
C3224      C3225   1.401       .  A
C3224      H3231   1.083       .  S
C3225      C3226   1.400       .  A
C3226      H3232   1.085       .  S
C3233      C3234   1.404       .  A
C3233      C3238   1.403       .  A
C3234      C3235   1.399       .  A
C3234      H3243   1.083       .  S
C3235      C3236   1.403       .  A
C3235      H3244   1.083       .  S
C3236      C3242   1.408       .  A
C3236      C3237   1.415       .  A
C3237      C3239   1.401       .  A
C3237      C3238   1.406       .  A
C3238      H3245   1.084       .  S
C3239      C3240   1.397       .  A
C3239      H3246   1.084       .  S
C3240      C3241   1.407       .  A
C3240      H3247   1.083       .  S
C3241      C3242   1.408       .  A
C3242      H3248   1.084       .  S
C3249      C3250   1.403       .  A
C3249      C3254   1.406       .  A
C3250      C3251   1.398       .  A
C3250      H3259   1.083       .  S
C3251      C3252   1.403       .  A
C3251      H3260   1.084       .  S
C3252      C3258   1.405       .  A
C3252      C3253   1.414       .  A
C3253      C3255   1.403       .  A
C3253      C3254   1.407       .  A
C3254      H3261   1.084       .  S
C3255      C3256   1.400       .  A
C3255      H3262   1.084       .  S
C3256      C3257   1.406       .  A
C3256      H3263   1.083       .  S
C3257      C3258   1.408       .  A
C3258      H3264   1.084       .  S
C3265      C3266   1.403       .  A
C3265      C3270   1.403       .  A
C3266      C3267   1.400       .  A
C3266      H3275   1.083       .  S
C3267      C3268   1.405       .  A
C3267      H3276   1.083       .  S
C3268      C3274   1.407       .  A
C3268      C3269   1.414       .  A
C3269      C3271   1.400       .  A
C3269      C3270   1.403       .  A
C3270      H3277   1.084       .  S
C3271      C3272   1.397       .  A
C3271      H3278   1.084       .  S
C3272      C3273   1.407       .  A
C3272      H3279   1.083   1_556  S
C3273      C3274   1.409       .  A
C3274      H3280   1.084       .  S
C3281      C3282   1.403       .  A
C3281      C3286   1.401       .  A
C3282      C3283   1.401       .  A
C3282      H3291   1.083       .  S
C3283      C3284   1.405       .  A
C3283      H3292   1.083       .  S
C3284      C3290   1.408       .  A
C3284      C3285   1.415       .  A
C3285      C3287   1.399       .  A
C3285      C3286   1.402       .  A
C3286      H3293   1.084       .  S
C3287      C3288   1.395       .  A
C3287      H3294   1.084       .  S
C3288      C3289   1.408       .  A
C3288      H3295   1.083       .  S
C3289      C3290   1.410       .  A
C3290      H3296   1.084       .  S
C3297      C3298   1.408       .  A
C3297      C3302   1.409       .  A
C3298      C3299   1.397       .  A
C3298      H3307   1.083       .  S
C3299      C3300   1.400       .  A
C3299      H3308   1.084       .  S
C3300      C3306   1.405       .  A
C3300      C3301   1.415       .  A
C3301      C3303   1.405       .  A
C3301      C3302   1.409       .  A
C3302      H3309   1.084       .  S
C3303      C3304   1.400       .  A
C3303      H3310   1.083       .  S
C3304      C3305   1.402       .  A
C3304      H3311   1.083       .  S
C3305      C3306   1.403       .  A
C3306      H3312   1.084       .  S
C3313      C3314   1.407       .  A
C3313      C3318   1.409       .  A
C3314      C3315   1.398       .  A
C3314      H3323   1.083       .  S
C3315      C3316   1.402       .  A
C3315      H3324   1.084       .  S
C3316      C3322   1.404       .  A
C3316      C3317   1.414       .  A
C3317      C3319   1.404       .  A
C3317      C3318   1.405       .  A
C3318      H3325   1.084       .  S
C3319      C3320   1.398       .  A
C3319      H3326   1.084       .  S
C3320      C3321   1.402       .  A
C3320      H3327   1.083       .  S
C3321      C3322   1.403       .  A
C3322      H3328   1.084       .  S
C3329      C3330   1.406       .  A
C3329      C3334   1.409       .  A
C3330      C3331   1.401       .  A
C3330      H3339   1.083       .  S
C3331      C3332   1.404       .  A
C3331      H3340   1.083       .  S
C3332      C3338   1.407       .  A
C3332      C3333   1.413       .  A
C3333      C3335   1.403       .  A
C3333      C3334   1.404       .  A
C3334      H3341   1.084       .  S
C3335      C3336   1.398       .  A
C3335      H3342   1.084       .  S
C3336      C3337   1.403       .  A
C3336      H3343   1.083       .  S
C3337      C3338   1.407       .  A
C3338      H3344   1.084       .  S
C3345      C3346   1.408       .  A
C3345      C3350   1.403       .  A
C3346      C3347   1.395       .  A
C3346      H3355   1.083       .  S
C3347      C3348   1.400       .  A
C3347      H3356   1.084       .  S
C3348      C3354   1.399       .  A
C3348      C3349   1.415       .  A
C3349      C3351   1.401       .  A
C3349      C3350   1.398       .  A
C3350      H3357   1.084       .  S
C3351      C3352   1.393       .  A
C3351      H3358   1.084       .  S
C3352      C3353   1.402       .  A
C3352      H3359   1.083       .  S
C3353      C3354   1.402       .  A
C3354      H3360   1.085       .  S
C3361      C3362   1.403       .  A
C3361      C3366   1.406       .  A
C3362      C3363   1.401       .  A
C3362      H3371   1.083       .  S
C3363      C3364   1.405       .  A
C3363      H3372   1.083       .  S
C3364      C3370   1.407       .  A
C3364      C3365   1.414       .  A
C3365      C3367   1.402       .  A
C3365      C3366   1.403       .  A
C3366      H3373   1.085       .  S
C3367      C3368   1.396       .  A
C3367      H3374   1.084       .  S
C3368      C3369   1.405       .  A
C3368      H3375   1.083       .  S
C3369      C3370   1.408       .  A
C3370      H3376   1.084       .  S
C3377      C3378   1.409       .  A
C3377      C3382   1.407       .  A
C3378      C3379   1.394       .  A
C3378      H3387   1.083       .  S
C3379      C3380   1.398       .  A
C3379      H3388   1.084       .  S
C3380      C3386   1.402       .  A
C3380      C3381   1.415       .  A
C3381      C3383   1.403       .  A
C3381      C3382   1.406       .  A
C3382      H3389   1.084       .  S
C3383      C3384   1.398       .  A
C3383      H3390   1.083       .  S
C3384      C3385   1.402       .  A
C3384      H3391   1.083       .  S
C3385      C3386   1.399       .  A
C3386      H3392   1.085       .  S
C3393      C3394   1.406       .  A
C3393      C3398   1.408       .  A
C3394      C3395   1.398       .  A
C3394      H3403   1.083       .  S
C3395      C3396   1.402       .  A
C3395      H3404   1.084       .  S
C3396      C3402   1.403       .  A
C3396      C3397   1.414       .  A
C3397      C3399   1.404       .  A
C3397      C3398   1.402       .  A
C3398      H3405   1.084       .  S
C3399      C3400   1.397       .  A
C3399      H3406   1.084       .  S
C3400      C3401   1.401       .  A
C3400      H3407   1.083       .  S
C3401      C3402   1.403       .  A
C3402      H3408   1.084       .  S
C3409      C3410   1.405       .  A
C3409      C3414   1.404       .  A
C3410      C3411   1.397       .  A
C3410      H3419   1.083   1_554  S
C3411      C3412   1.402       .  A
C3411      H3420   1.084       .  S
C3412      C3418   1.400       .  A
C3412      C3413   1.415       .  A
C3413      C3415   1.402       .  A
C3413      C3414   1.400       .  A
C3414      H3421   1.084       .  S
C3415      C3416   1.395       .  A
C3415      H3422   1.084       .  S
C3416      C3417   1.401       .  A
C3416      H3423   1.083       .  S
C3417      C3418   1.401       .  A
C3418      H3424   1.084       .  S
C3425      C3426   1.410       .  A
C3425      C3430   1.408       .  A
C3426      C3427   1.397       .  A
C3426      H3435   1.083       .  S
C3427      C3428   1.399       .  A
C3427      H3436   1.084       .  S
C3428      C3434   1.406       .  A
C3428      C3429   1.415       .  A
C3429      C3431   1.403       .  A
C3429      C3430   1.409       .  A
C3430      H3437   1.084       .  S
C3431      C3432   1.399       .  A
C3431      H3438   1.083       .  S
C3432      C3433   1.403       .  A
C3432      H3439   1.083       .  S
C3433      C3434   1.403       .  A
C3434      H3440   1.084       .  S
C3441      C3442   1.410       .  A
C3441      C3446   1.409       .  A
C3442      C3443   1.394       .  A
C3442      H3451   1.083       .  S
C3443      C3444   1.397       .  A
C3443      H3452   1.084       .  S
C3444      C3450   1.403       .  A
C3444      C3445   1.415       .  A
C3445      C3447   1.405       .  A
C3445      C3446   1.411       .  A
C3446      H3453   1.084       .  S
C3447      C3448   1.401       .  A
C3447      H3454   1.083       .  S
C3448      C3449   1.403       .  A
C3448      H3455   1.083       .  S
C3449      C3450   1.401       .  A
C3450      H3456   1.085       .  S
C3457      C3458   1.408       .  A
C3457      C3462   1.406       .  A
C3458      C3459   1.398       .  A
C3458      H3467   1.083       .  S
C3459      C3460   1.401       .  A
C3459      H3468   1.084       .  S
C3460      C3466   1.404       .  A
C3460      C3461   1.415       .  A
C3461      C3463   1.402       .  A
C3461      C3462   1.401       .  A
C3462      H3469   1.084       .  S
C3463      C3464   1.395       .  A
C3463      H3470   1.084       .  S
C3464      C3465   1.401       .  A
C3464      H3471   1.083       .  S
C3465      C3466   1.403       .  A
C3466      H3472   1.084       .  S
C3473      C3474   1.406       .  A
C3473      C3478   1.405       .  A
C3474      C3475   1.395       .  A
C3474      H3483   1.083       .  S
C3475      C3476   1.400       .  A
C3475      H3484   1.084       .  S
C3476      C3482   1.403       .  A
C3476      C3477   1.415       .  A
C3477      C3479   1.403       .  A
C3477      C3478   1.406       .  A
C3478      H3485   1.084       .  S
C3479      C3480   1.398       .  A
C3479      H3486   1.083       .  S
C3480      C3481   1.404       .  A
C3480      H3487   1.083       .  S
C3481      C3482   1.404       .  A
C3482      H3488   1.085       .  S
C3489      C3490   1.406   1_556  A
C3489      C3494   1.407   1_556  A
C3490      C3491   1.398       .  A
C3490      H3499   1.083       .  S
C3491      C3492   1.402       .  A
C3491      H3500   1.084       .  S
C3492      C3498   1.405       .  A
C3492      C3493   1.415       .  A
C3493      C3495   1.402       .  A
C3493      C3494   1.404       .  A
C3494      H3501   1.084   1_554  S
C3495      C3496   1.397       .  A
C3495      H3502   1.084       .  S
C3496      C3497   1.403       .  A
C3496      H3503   1.083       .  S
C3497      C3498   1.404       .  A
C3498      H3504   1.084       .  S
C3505      C3506   1.407       .  A
C3505      C3510   1.408       .  A
C3506      C3507   1.391       .  A
C3506      H3515   1.083       .  S
C3507      C3508   1.397       .  A
C3507      H3516   1.084       .  S
C3508      C3514   1.398       .  A
C3508      C3509   1.415       .  A
C3509      C3511   1.405       .  A
C3509      C3510   1.408       .  A
C3510      H3517   1.084       .  S
C3511      C3512   1.401       .  A
C3511      H3518   1.083       .  S
C3512      C3513   1.404       .  A
C3512      H3519   1.083       .  S
C3513      C3514   1.399       .  A
C3514      H3520   1.085       .  S
C3521      C3522   1.409       .  A
C3521      C3526   1.407       .  A
C3522      C3523   1.396       .  A
C3522      H3531   1.083       .  S
C3523      C3524   1.400       .  A
C3523      H3532   1.084       .  S
C3524      C3530   1.404       .  A
C3524      C3525   1.415       .  A
C3525      C3527   1.403       .  A
C3525      C3526   1.406       .  A
C3526      H3533   1.084       .  S
C3527      C3528   1.398       .  A
C3527      H3534   1.083       .  S
C3528      C3529   1.402       .  A
C3528      H3535   1.083       .  S
C3529      C3530   1.403       .  A
C3530      H3536   1.084       .  S
C3537      C3538   1.408       .  A
C3537      C3542   1.409       .  A
C3538      C3539   1.395       .  A
C3538      H3547   1.083       .  S
C3539      C3540   1.399       .  A
C3539      H3548   1.084       .  S
C3540      C3546   1.403       .  A
C3540      C3541   1.415       .  A
C3541      C3543   1.404       .  A
C3541      C3542   1.409       .  A
C3542      H3549   1.084       .  S
C3543      C3544   1.401       .  A
C3543      H3550   1.083       .  S
C3544      C3545   1.404       .  A
C3544      H3551   1.083       .  S
C3545      C3546   1.402       .  A
C3546      H3552   1.084       .  S
C3553      C3554   1.407       .  A
C3553      C3558   1.409       .  A
C3554      C3555   1.396       .  A
C3554      H3563   1.083       .  S
C3555      C3556   1.400       .  A
C3555      H3564   1.084       .  S
C3556      C3562   1.402       .  A
C3556      C3557   1.414       .  A
C3557      C3559   1.404       .  A
C3557      C3558   1.404       .  A
C3558      H3565   1.084       .  S
C3559      C3560   1.398       .  A
C3559      H3566   1.083       .  S
C3560      C3561   1.402       .  A
C3560      H3567   1.083       .  S
C3561      C3562   1.401       .  A
C3562      H3568   1.084       .  S
C3569      C3570   1.403       .  A
C3569      C3574   1.400       .  A
C3570      C3571   1.400       .  A
C3570      H3579   1.083       .  S
C3571      C3572   1.404       .  A
C3571      H3580   1.084       .  S
C3572      C3578   1.402       .  A
C3572      C3573   1.415       .  A
C3573      C3575   1.399       .  A
C3573      C3574   1.395       .  A
C3574      H3581   1.085       .  S
C3575      C3576   1.390       .  A
C3575      H3582   1.084       .  S
C3576      C3577   1.402       .  A
C3576      H3583   1.083       .  S
C3577      C3578   1.403       .  A
C3578      H3584   1.084       .  S
C3585      C3586   1.405       .  A
C3585      C3590   1.405       .  A
C3586      C3587   1.393       .  A
C3586      H3595   1.083       .  S
C3587      C3588   1.400       .  A
C3587      H3596   1.084       .  S
C3588      C3594   1.397       .  A
C3588      C3589   1.414       .  A
C3589      C3591   1.404       .  A
C3589      C3590   1.402       .  A
C3590      H3597   1.084       .  S
C3591      C3592   1.399       .  A
C3591      H3598   1.083       .  S
C3592      C3593   1.402       .  A
C3592      H3599   1.083       .  S
C3593      C3594   1.402       .  A
C3594      H3600   1.085       .  S
C3601      C3602   1.403       .  A
C3601      C3606   1.406       .  A
C3602      C3603   1.390       .  A
C3602      H3611   1.083       .  S
C3603      C3604   1.399       .  A
C3603      H3612   1.084       .  S
C3604      C3610   1.395       .  A
C3604      C3605   1.414       .  A
C3605      C3607   1.405       .  A
C3605      C3606   1.405       .  A
C3606      H3613   1.084       .  S
C3607      C3608   1.402       .  A
C3607      H3614   1.083       .  S
C3608      C3609   1.405       .  A
C3608      H3615   1.083       .  S
C3609      C3610   1.403       .  A
C3610      H3616   1.085       .  S
C3617      C3618   1.409       .  A
C3617      C3622   1.408       .  A
C3618      C3619   1.399       .  A
C3618      H3627   1.083       .  S
C3619      C3620   1.402       .  A
C3619      H3628   1.084       .  S
C3620      C3626   1.408       .  A
C3620      C3621   1.415       .  A
C3621      C3623   1.403       .  A
C3621      C3622   1.406       .  A
C3622      H3629   1.084       .  S
C3623      C3624   1.397       .  A
C3623      H3630   1.083       .  S
C3624      C3625   1.402       .  A
C3624      H3631   1.083       .  S
C3625      C3626   1.405       .  A
C3626      H3632   1.084       .  S
C3633      C3634   1.402       .  A
C3633      C3638   1.402       .  A
C3634      C3635   1.395       .  A
C3634      H3643   1.083       .  S
C3635      C3636   1.402       .  A
C3635      H3644   1.084       .  S
C3636      C3642   1.401       .  A
C3636      C3637   1.415       .  A
C3637      C3639   1.400       .  A
C3637      C3638   1.403       .  A
C3638      H3645   1.084       .  S
C3639      C3640   1.397       .  A
C3639      H3646   1.084       .  S
C3640      C3641   1.408       .  A
C3640      H3647   1.083       .  S
C3641      C3642   1.406       .  A
C3642      H3648   1.084       .  S
C3649      C3650   1.405       .  A
C3649      C3654   1.406       .  A
C3650      C3651   1.401       .  A
C3650      H3659   1.083       .  S
C3651      C3652   1.405       .  A
C3651      H3660   1.083       .  S
C3652      C3658   1.406       .  A
C3652      C3653   1.414       .  A
C3653      C3655   1.402       .  A
C3653      C3654   1.400       .  A
C3654      H3661   1.085       .  S
C3655      C3656   1.395       .  A
C3655      H3662   1.084       .  S
C3656      C3657   1.402       .  A
C3656      H3663   1.083       .  S
C3657      C3658   1.406       .  A
C3658      H3664   1.084       .  S
C3665      C3666   1.402       .  A
C3665      C3670   1.402       .  A
C3666      C3667   1.397       .  A
C3666      H3675   1.083       .  S
C3667      C3668   1.404       .  A
C3667      H3676   1.084       .  S
C3668      C3674   1.400       .  A
C3668      C3669   1.414       .  A
C3669      C3671   1.401       .  A
C3669      C3670   1.396       .  A
C3670      H3677   1.085       .  S
C3671      C3672   1.393       .  A
C3671      H3678   1.084       .  S
C3672      C3673   1.403       .  A
C3672      H3679   1.083       .  S
C3673      C3674   1.406       .  A
C3674      H3680   1.085       .  S
C3681      C3682   1.403       .  A
C3681      C3686   1.404       .  A
C3682      C3683   1.397       .  A
C3682      H3691   1.083       .  S
C3683      C3684   1.404       .  A
C3683      H3692   1.084       .  S
C3684      C3690   1.401       .  A
C3684      C3685   1.413       .  A
C3685      C3687   1.402       .  A
C3685      C3686   1.400       .  A
C3686      H3693   1.085       .  S
C3687      C3688   1.397       .  A
C3687      H3694   1.084       .  S
C3688      C3689   1.404       .  A
C3688      H3695   1.083       .  S
C3689      C3690   1.407       .  A
C3690      H3696   1.084       .  S
C3697      C3698   1.405       .  A
C3697      C3702   1.407       .  A
C3698      C3699   1.393       .  A
C3698      H3707   1.083       .  S
C3699      C3700   1.400       .  A
C3699      H3708   1.084       .  S
C3700      C3706   1.400       .  A
C3700      C3701   1.414       .  A
C3701      C3703   1.404       .  A
C3701      C3702   1.406       .  A
C3702      H3709   1.084       .  S
C3703      C3704   1.401       .  A
C3703      H3710   1.083       .  S
C3704      C3705   1.404       .  A
C3704      H3711   1.083       .  S
C3705      C3706   1.404       .  A
C3706      H3712   1.085       .  S
C3713      C3714   1.401       .  A
C3713      C3718   1.404       .  A
C3714      C3715   1.394       .  A
C3714      H3723   1.083       .  S
C3715      C3716   1.402       .  A
C3715      H3724   1.084       .  S
C3716      C3722   1.398       .  A
C3716      C3717   1.414       .  A
C3717      C3719   1.404       .  A
C3717      C3718   1.403       .  A
C3718      H3725   1.084       .  S
C3719      C3720   1.400       .  A
C3719      H3726   1.083       .  S
C3720      C3721   1.405       .  A
C3720      H3727   1.083       .  S
C3721      C3722   1.406       .  A
C3722      H3728   1.085       .  S
C3729      C3730   1.408       .  A
C3729      C3734   1.409       .  A
C3730      C3731   1.401       .  A
C3730      H3739   1.083       .  S
C3731      C3732   1.403       .  A
C3731      H3740   1.084       .  S
C3732      C3738   1.408       .  A
C3732      C3733   1.414       .  A
C3733      C3735   1.403       .  A
C3733      C3734   1.405       .  A
C3734      H3741   1.084       .  S
C3735      C3736   1.397       .  A
C3735      H3742   1.084       .  S
C3736      C3737   1.402       .  A
C3736      H3743   1.083       .  S
C3737      C3738   1.405       .  A
C3738      H3744   1.084       .  S
C3745      C3746   1.407       .  A
C3745      C3750   1.408       .  A
C3746      C3747   1.396       .  A
C3746      H3755   1.083       .  S
C3747      C3748   1.400       .  A
C3747      H3756   1.084       .  S
C3748      C3754   1.403       .  A
C3748      C3749   1.414       .  A
C3749      C3751   1.403       .  A
C3749      C3750   1.404       .  A
C3750      H3757   1.084       .  S
C3751      C3752   1.397       .  A
C3751      H3758   1.084       .  S
C3752      C3753   1.402       .  A
C3752      H3759   1.083       .  S
C3753      C3754   1.402       .  A
C3754      H3760   1.084       .  S
C3761      C3762   1.407       .  A
C3761      C3766   1.409       .  A
C3762      C3763   1.395       .  A
C3762      H3771   1.083       .  S
C3763      C3764   1.400       .  A
C3763      H3772   1.084       .  S
C3764      C3770   1.402       .  A
C3764      C3765   1.414       .  A
C3765      C3767   1.405       .  A
C3765      C3766   1.405       .  A
C3766      H3773   1.084       .  S
C3767      C3768   1.399       .  A
C3767      H3774   1.083       .  S
C3768      C3769   1.402       .  A
C3768      H3775   1.083       .  S
C3769      C3770   1.401       .  A
C3770      H3776   1.084       .  S
C3777      C3778   1.402       .  A
C3777      C3782   1.403       .  A
C3778      C3779   1.397       .  A
C3778      H3787   1.083       .  S
C3779      C3780   1.403       .  A
C3779      H3788   1.084       .  S
C3780      C3786   1.404       .  A
C3780      C3781   1.414       .  A
C3781      C3783   1.402       .  A
C3781      C3782   1.404       .  A
C3782      H3789   1.084       .  S
C3783      C3784   1.398       .  A
C3783      H3790   1.084       .  S
C3784      C3785   1.407       .  A
C3784      H3791   1.083       .  S
C3785      C3786   1.407       .  A
C3786      H3792   1.084       .  S
C3793      C3794   1.403       .  A
C3793      C3798   1.402       .  A
C3794      C3795   1.400       .  A
C3794      H3803   1.083       .  S
C3795      C3796   1.405       .  A
C3795      H3804   1.083       .  S
C3796      C3802   1.406       .  A
C3796      C3797   1.415       .  A
C3797      C3799   1.401       .  A
C3797      C3798   1.401       .  A
C3798      H3805   1.085       .  S
C3799      C3800   1.395       .  A
C3799      H3806   1.084       .  S
C3800      C3801   1.402       .  A
C3800      H3807   1.084       .  S
C3801      C3802   1.404       .  A
C3802      H3808   1.085       .  S
C3809      C3810   1.404       .  A
C3809      C3814   1.404       .  A
C3810      C3811   1.399       .  A
C3810      H3819   1.083       .  S
C3811      C3812   1.403       .  A
C3811      H3820   1.083       .  S
C3812      C3818   1.408       .  A
C3812      C3813   1.415       .  A
C3813      C3815   1.402       .  A
C3813      C3814   1.408       .  A
C3814      H3821   1.084       .  S
C3815      C3816   1.399       .  A
C3815      H3822   1.084       .  S
C3816      C3817   1.408       .  A
C3816      H3823   1.083       .  S
C3817      C3818   1.409       .  A
C3818      H3824   1.084       .  S
C3825      C3826   1.402       .  A
C3825      C3830   1.402       .  A
C3826      C3827   1.398       .  A
C3826      H3835   1.083       .  S
C3827      C3828   1.404       .  A
C3827      H3836   1.083       .  S
C3828      C3834   1.405       .  A
C3828      C3829   1.415       .  A
C3829      C3831   1.400       .  A
C3829      C3830   1.403       .  A
C3830      H3837   1.084       .  S
C3831      C3832   1.396       .  A
C3831      H3838   1.084       .  S
C3832      C3833   1.407       .  A
C3832      H3839   1.083       .  S
C3833      C3834   1.407       .  A
C3834      H3840   1.084       .  S
C3841      C3842   1.409       .  A
C3841      C3846   1.407       .  A
C3842      C3843   1.395       .  A
C3842      H3851   1.083       .  S
C3843      C3844   1.398       .  A
C3843      H3852   1.084       .  S
C3844      C3850   1.403       .  A
C3844      C3845   1.415       .  A
C3845      C3847   1.403       .  A
C3845      C3846   1.406       .  A
C3846      H3853   1.084       .  S
C3847      C3848   1.398       .  A
C3847      H3854   1.083       .  S
C3848      C3849   1.402       .  A
C3848      H3855   1.083       .  S
C3849      C3850   1.401       .  A
C3850      H3856   1.085       .  S
C3857      C3858   1.407       .  A
C3857      C3862   1.409       .  A
C3858      C3859   1.395       .  A
C3858      H3867   1.083       .  S
C3859      C3860   1.399       .  A
C3859      H3868   1.084       .  S
C3860      C3866   1.402       .  A
C3860      C3861   1.415       .  A
C3861      C3863   1.405       .  A
C3861      C3862   1.407       .  A
C3862      H3869   1.084       .  S
C3863      C3864   1.400       .  A
C3863      H3870   1.083       .  S
C3864      C3865   1.403       .  A
C3864      H3871   1.083       .  S
C3865      C3866   1.401       .  A
C3866      H3872   1.085       .  S
C3873      C3874   1.404       .  A
C3873      C3878   1.407       .  A
C3874      C3875   1.400       .  A
C3874      H3883   1.083       .  S
C3875      C3876   1.404       .  A
C3875      H3884   1.083       .  S
C3876      C3882   1.409       .  A
C3876      C3877   1.414       .  A
C3877      C3879   1.402       .  A
C3877      C3878   1.408       .  A
C3878      H3885   1.084       .  S
C3879      C3880   1.400       .  A
C3879      H3886   1.084       .  S
C3880      C3881   1.408       .  A
C3880      H3887   1.083       .  S
C3881      C3882   1.410       .  A
C3882      H3888   1.084       .  S
C3889      C3890   1.402       .  A
C3889      C3894   1.404       .  A
C3890      C3891   1.395       .  A
C3890      H3899   1.083       .  S
C3891      C3892   1.402       .  A
C3891      H3900   1.084       .  S
C3892      C3898   1.402       .  A
C3892      C3893   1.414       .  A
C3893      C3895   1.403       .  A
C3893      C3894   1.405       .  A
C3894      H3901   1.084       .  S
C3895      C3896   1.399       .  A
C3895      H3902   1.084       .  S
C3896      C3897   1.406       .  A
C3896      H3903   1.083       .  S
C3897      C3898   1.407       .  A
C3898      H3904   1.084       .  S
C3905      C3906   1.409       .  A
C3905      C3910   1.408       .  A
C3906      C3907   1.395       .  A
C3906      H3915   1.083       .  S
C3907      C3908   1.399       .  A
C3907      H3916   1.084       .  S
C3908      C3914   1.404       .  A
C3908      C3909   1.415       .  A
C3909      C3911   1.403       .  A
C3909      C3910   1.407       .  A
C3910      H3917   1.084       .  S
C3911      C3912   1.399       .  A
C3911      H3918   1.083       .  S
C3912      C3913   1.403       .  A
C3912      H3919   1.083       .  S
C3913      C3914   1.401       .  A
C3914      H3920   1.084       .  S
C3921      C3922   1.407       .  A
C3921      C3926   1.407       .  A
C3922      C3923   1.399       .  A
C3922      H3931   1.083       .  S
C3923      C3924   1.402       .  A
C3923      H3932   1.084       .  S
C3924      C3930   1.404       .  A
C3924      C3925   1.414       .  A
C3925      C3927   1.402       .  A
C3925      C3926   1.401       .  A
C3926      H3933   1.084       .  S
C3927      C3928   1.395       .  A
C3927      H3934   1.084       .  S
C3928      C3929   1.401       .  A
C3928      H3935   1.083       .  S
C3929      C3930   1.403       .  A
C3930      H3936   1.084       .  S
C3937      C3938   1.402       .  A
C3937      C3942   1.405       .  A
C3938      C3939   1.398       .  A
C3938      H3947   1.083       .  S
C3939      C3940   1.403       .  A
C3939      H3948   1.083       .  S
C3940      C3946   1.405       .  A
C3940      C3941   1.414       .  A
C3941      C3943   1.402       .  A
C3941      C3942   1.404       .  A
C3942      H3949   1.084       .  S
C3943      C3944   1.398       .  A
C3943      H3950   1.084       .  S
C3944      C3945   1.407       .  A
C3944      H3951   1.083       .  S
C3945      C3946   1.409       .  A
C3946      H3952   1.084       .  S
C3953      C3954   1.407       .  A
C3953      C3958   1.408       .  A
C3954      C3955   1.397       .  A
C3954      H3963   1.083       .  S
C3955      C3956   1.401       .  A
C3955      H3964   1.084       .  S
C3956      C3962   1.403       .  A
C3956      C3957   1.414       .  A
C3957      C3959   1.403       .  A
C3957      C3958   1.404       .  A
C3958      H3965   1.084       .  S
C3959      C3960   1.397       .  A
C3959      H3966   1.084       .  S
C3960      C3961   1.403       .  A
C3960      H3967   1.083       .  S
C3961      C3962   1.404       .  A
C3962      H3968   1.084       .  S
C3969      C3970   1.408       .  A
C3969      C3974   1.410       .  A
C3970      C3971   1.393       .  A
C3970      H3979   1.083       .  S
C3971      C3972   1.398       .  A
C3971      H3980   1.084       .  S
C3972      C3978   1.402       .  A
C3972      C3973   1.415       .  A
C3973      C3975   1.404       .  A
C3973      C3974   1.409       .  A
C3974      H3981   1.084       .  S
C3975      C3976   1.401       .  A
C3975      H3982   1.083       .  S
C3976      C3977   1.404       .  A
C3976      H3983   1.083       .  S
C3977      C3978   1.401       .  A
C3978      H3984   1.085       .  S
C3985      C3986   1.402       .  A
C3985      C3990   1.408       .  A
C3986      C3987   1.392       .  A
C3986      H3995   1.083       .  S
C3987      C3988   1.400       .  A
C3987      H3996   1.084       .  S
C3988      C3994   1.398       .  A
C3988      C3989   1.414       .  A
C3989      C3991   1.407       .  A
C3989      C3990   1.409       .  A
C3990      H3997   1.084       .  S
C3991      C3992   1.405       .  A
C3991      H3998   1.083       .  S
C3992      C3993   1.404       .  A
C3992      H3999   1.083       .  S
C3993      C3994   1.403       .  A
C3994      H4000   1.085       .  S
C4001      C4002   1.402       .  A
C4001      C4006   1.403       .  A
C4002      C4003   1.403       .  A
C4002      H4011   1.083       .  S
C4003      C4004   1.406       .  A
C4003      H4012   1.083       .  S
C4004      C4010   1.405       .  A
C4004      C4005   1.413       .  A
C4005      C4007   1.401       .  A
C4005      C4006   1.398       .  A
C4006      H4013   1.085       .  S
C4007      C4008   1.393       .  A
C4007      H4014   1.084       .  S
C4008      C4009   1.403       .  A
C4008      H4015   1.083       .  S
C4009      C4010   1.408       .  A
C4010      H4016   1.084       .  S
C4017      C4018   1.403       .  A
C4017      C4022   1.405       .  A
C4018      C4019   1.401       .  A
C4018      H4027   1.083       .  S
C4019      C4020   1.405       .  A
C4019      H4028   1.083       .  S
C4020      C4026   1.405       .  A
C4020      C4021   1.413       .  A
C4021      C4023   1.400       .  A
C4021      C4022   1.399       .  A
C4022      H4029   1.085       .  S
C4023      C4024   1.393       .  A
C4023      H4030   1.084       .  S
C4024      C4025   1.406       .  A
C4024      H4031   1.083       .  S
C4025      C4026   1.408       .  A
C4026      H4032   1.084       .  S
C4033      C4034   1.405       .  A
C4033      C4038   1.407       .  A
C4034      C4035   1.398       .  A
C4034      H4043   1.083       .  S
C4035      C4036   1.403       .  A
C4035      H4044   1.084       .  S
C4036      C4042   1.401       .  A
C4036      C4037   1.414       .  A
C4037      C4039   1.402       .  A
C4037      C4038   1.398       .  A
C4038      H4045   1.084       .  S
C4039      C4040   1.394       .  A
C4039      H4046   1.084       .  S
C4040      C4041   1.401       .  A
C4040      H4047   1.083       .  S
C4041      C4042   1.402       .  A
C4042      H4048   1.084       .  S
C4049      C4050   1.403       .  A
C4049      C4054   1.405       .  A
C4050      C4051   1.403       .  A
C4050      H4059   1.083       .  S
C4051      C4052   1.407       .  A
C4051      H4060   1.083       .  S
C4052      C4058   1.406       .  A
C4052      C4053   1.413       .  A
C4053      C4055   1.401       .  A
C4053      C4054   1.397       .  A
C4054      H4061   1.085       .  S
C4055      C4056   1.393       .  A
C4055      H4062   1.084       .  S
C4056      C4057   1.403       .  A
C4056      H4063   1.083       .  S
C4057      C4058   1.408       .  A
C4058      H4064   1.084       .  S
C4065      C4066   1.403       .  A
C4065      C4070   1.402       .  A
C4066      C4067   1.397       .  A
C4066      H4075   1.083       .  S
C4067      C4068   1.404       .  A
C4067      H4076   1.084       .  S
C4068      C4074   1.402       .  A
C4068      C4069   1.414       .  A
C4069      C4071   1.402       .  A
C4069      C4070   1.401       .  A
C4070      H4077   1.084       .  S
C4071      C4072   1.396       .  A
C4071      H4078   1.083       .  S
C4072      C4073   1.403       .  A
C4072      H4079   1.083       .  S
C4073      C4074   1.407       .  A
C4074      H4080   1.085       .  S
C4081      C4082   1.404       .  A
C4081      C4086   1.407       .  A
C4082      C4083   1.396       .  A
C4082      H4091   1.083       .  S
C4083      C4084   1.403       .  A
C4083      H4092   1.084       .  S
C4084      C4090   1.401       .  A
C4084      C4085   1.414       .  A
C4085      C4087   1.406       .  A
C4085      C4086   1.406       .  A
C4086      H4093   1.084       .  S
C4087      C4088   1.402       .  A
C4087      H4094   1.083       .  S
C4088      C4089   1.402       .  A
C4088      H4095   1.083       .  S
C4089      C4090   1.405       .  A
C4090      H4096   1.085       .  S
C4097      C4098   1.404       .  A
C4097      C4102   1.406       .  A
C4098      C4099   1.403       .  A
C4098      H4107   1.083       .  S
C4099      C4100   1.406       .  A
C4099      H4108   1.083       .  S
C4100      C4106   1.409       .  A
C4100      C4101   1.414       .  A
C4101      C4103   1.402       .  A
C4101      C4102   1.402       .  A
C4102      H4109   1.085       .  S
C4103      C4104   1.395       .  A
C4103      H4110   1.084       .  S
C4104      C4105   1.403       .  A
C4104      H4111   1.083       .  S
C4105      C4106   1.409       .  A
C4106      H4112   1.084       .  S
C4113      C4114   1.403       .  A
C4113      C4118   1.402       .  A
C4114      C4115   1.401       .  A
C4114      H4123   1.083       .  S
C4115      C4116   1.405       .  A
C4115      H4124   1.083       .  S
C4116      C4122   1.406       .  A
C4116      C4117   1.414       .  A
C4117      C4119   1.400       .  A
C4117      C4118   1.400       .  A
C4118      H4125   1.085       .  S
C4119      C4120   1.394       .  A
C4119      H4126   1.084       .  S
C4120      C4121   1.405       .  A
C4120      H4127   1.083       .  S
C4121      C4122   1.408       .  A
C4122      H4128   1.084       .  S
C4129      C4130   1.401       .  A
C4129      C4134   1.403       .  A
C4130      C4131   1.395       .  A
C4130      H4139   1.083       .  S
C4131      C4132   1.402       .  A
C4131      H4140   1.083       .  S
C4132      C4138   1.402       .  A
C4132      C4133   1.415       .  A
C4133      C4135   1.401       .  A
C4133      C4134   1.404       .  A
C4134      H4141   1.084       .  S
C4135      C4136   1.398       .  A
C4135      H4142   1.084       .  S
C4136      C4137   1.408       .  A
C4136      H4143   1.083       .  S
C4137      C4138   1.406       .  A
C4138      H4144   1.084       .  S
C4145      C4146   1.400       .  A
C4145      C4150   1.404       .  A
C4146      C4147   1.391       .  A
C4146      H4155   1.083       .  S
C4147      C4148   1.400       .  A
C4147      H4156   1.084       .  S
C4148      C4154   1.395       .  A
C4148      C4149   1.414       .  A
C4149      C4151   1.404       .  A
C4149      C4150   1.405       .  A
C4150      H4157   1.084       .  S
C4151      C4152   1.401       .  A
C4151      H4158   1.084       .  S
C4152      C4153   1.406       .  A
C4152      H4159   1.083       .  S
C4153      C4154   1.404       .  A
C4154      H4160   1.084       .  S
C4161      C4162   1.405       .  A
C4161      C4166   1.405       .  A
C4162      C4163   1.398       .  A
C4162      H4171   1.083       .  S
C4163      C4164   1.402       .  A
C4163      H4172   1.084       .  S
C4164      C4170   1.401       .  A
C4164      C4165   1.414       .  A
C4165      C4167   1.402       .  A
C4165      C4166   1.398       .  A
C4166      H4173   1.084       .  S
C4167      C4168   1.393       .  A
C4167      H4174   1.084       .  S
C4168      C4169   1.400       .  A
C4168      H4175   1.083       .  S
C4169      C4170   1.402       .  A
C4170      H4176   1.084       .  S
C4177      C4178   1.402       .  A
C4177      C4182   1.400       .  A
C4178      C4179   1.398       .  A
C4178      H4187   1.083       .  S
C4179      C4180   1.403       .  A
C4179      H4188   1.084       .  S
C4180      C4186   1.402       .  A
C4180      C4181   1.415       .  A
C4181      C4183   1.400       .  A
C4181      C4182   1.399       .  A
C4182      H4189   1.085       .  S
C4183      C4184   1.393       .  A
C4183      H4190   1.084       .  S
C4184      C4185   1.403       .  A
C4184      H4191   1.083       .  S
C4185      C4186   1.404       .  A
C4186      H4192   1.084       .  S
C4193      C4194   1.404       .  A
C4193      C4198   1.411       .  A
C4194      C4195   1.391       .  A
C4194      H4203   1.083       .  S
C4195      C4196   1.399       .  A
C4195      H4204   1.084       .  S
C4196      C4202   1.396       .  A
C4196      C4197   1.413       .  A
C4197      C4199   1.408       .  A
C4197      C4198   1.410       .  A
C4198      H4205   1.084       .  S
C4199      C4200   1.406       .  A
C4199      H4206   1.083       .  S
C4200      C4201   1.404       .  A
C4200      H4207   1.083       .  S
C4201      C4202   1.403       .  A
C4202      H4208   1.085       .  S
C4209      C4210   1.402       .  A
C4209      C4214   1.403       .  A
C4210      C4211   1.399       .  A
C4210      H4219   1.083       .  S
C4211      C4212   1.404       .  A
C4211      H4220   1.083       .  S
C4212      C4218   1.402       .  A
C4212      C4213   1.414       .  A
C4213      C4215   1.401       .  A
C4213      C4214   1.398       .  A
C4214      H4221   1.085       .  S
C4215      C4216   1.394       .  A
C4215      H4222   1.084       .  S
C4216      C4217   1.405       .  A
C4216      H4223   1.083       .  S
C4217      C4218   1.406       .  A
C4218      H4224   1.084       .  S
C4225      C4226   1.401       .  A
C4225      C4230   1.406       .  A
C4226      C4227   1.395       .  A
C4226      H4235   1.083       .  S
C4227      C4228   1.403       .  A
C4227      H4236   1.084       .  S
C4228      C4234   1.398       .  A
C4228      C4229   1.413       .  A
C4229      C4231   1.405       .  A
C4229      C4230   1.404       .  A
C4230      H4237   1.084       .  S
C4231      C4232   1.401       .  A
C4231      H4238   1.083       .  S
C4232      C4233   1.404       .  A
C4232      H4239   1.083       .  S
C4233      C4234   1.407       .  A
C4234      H4240   1.085       .  S
C4241      C4242   1.409       .  A
C4241      C4246   1.406       .  A
C4242      C4243   1.394       .  A
C4242      H4251   1.083       .  S
C4243      C4244   1.399       .  A
C4243      H4252   1.084       .  S
C4244      C4250   1.401       .  A
C4244      C4245   1.415       .  A
C4245      C4247   1.402       .  A
C4245      C4246   1.403       .  A
C4246      H4253   1.084       .  S
C4247      C4248   1.396       .  A
C4247      H4254   1.083       .  S
C4248      C4249   1.401       .  A
C4248      H4255   1.083       .  S
C4249      C4250   1.401       .  A
C4250      H4256   1.085       .  S
C4257      C4258   1.401       .  A
C4257      C4262   1.403       .  A
C4258      C4259   1.397       .  A
C4258      H4267   1.083       .  S
C4259      C4260   1.404       .  A
C4259      H4268   1.084       .  S
C4260      C4266   1.401       .  A
C4260      C4261   1.413       .  A
C4261      C4263   1.402       .  A
C4261      C4262   1.402       .  A
C4262      H4269   1.084       .  S
C4263      C4264   1.398       .  A
C4263      H4270   1.084       .  S
C4264      C4265   1.406       .  A
C4264      H4271   1.083       .  S
C4265      C4266   1.409       .  A
C4266      H4272   1.084       .  S
C4273      C4274   1.403       .  A
C4273      C4278   1.403       .  A
C4274      C4275   1.398       .  A
C4274      H4283   1.083       .  S
C4275      C4276   1.403       .  A
C4275      H4284   1.084       .  S
C4276      C4282   1.404       .  A
C4276      C4277   1.415       .  A
C4277      C4279   1.401       .  A
C4277      C4278   1.403       .  A
C4278      H4285   1.084       .  S
C4279      C4280   1.396       .  A
C4279      H4286   1.084       .  S
C4280      C4281   1.405       .  A
C4280      H4287   1.083       .  S
C4281      C4282   1.406       .  A
C4282      H4288   1.084       .  S
C4289      C4290   1.402       .  A
C4289      C4294   1.401       .  A
C4290      C4291   1.398       .  A
C4290      H4299   1.083       .  S
C4291      C4292   1.404       .  A
C4291      H4300   1.083       .  S
C4292      C4298   1.406       .  A
C4292      C4293   1.415       .  A
C4293      C4295   1.399       .  A
C4293      C4294   1.403       .  A
C4294      H4301   1.085       .  S
C4295      C4296   1.395       .  A
C4295      H4302   1.084       .  S
C4296      C4297   1.408       .  A
C4296      H4303   1.083       .  S
C4297      C4298   1.407       .  A
C4298      H4304   1.084       .  S
C4305      C4306   1.403       .  A
C4305      C4310   1.403       .  A
C4306      C4307   1.405       .  A
C4306      H4315   1.083       .  S
C4307      C4308   1.408       .  A
C4307      H4316   1.083       .  S
C4308      C4314   1.408       .  A
C4308      C4309   1.413       .  A
C4309      C4311   1.400       .  A
C4309      C4310   1.397       .  A
C4310      H4317   1.085       .  S
C4311      C4312   1.391       .  A
C4311      H4318   1.084       .  S
C4312      C4313   1.403       .  A
C4312      H4319   1.083       .  S
C4313      C4314   1.410       .  A
C4314      H4320   1.084       .  S
C4321      C4322   1.404       .  A
C4321      C4326   1.410       .  A
C4322      C4323   1.393       .  A
C4322      H4331   1.083       .  S
C4323      C4324   1.401       .  A
C4323      H4332   1.084       .  S
C4324      C4330   1.397       .  A
C4324      C4325   1.412       .  A
C4325      C4327   1.407       .  A
C4325      C4326   1.405       .  A
C4326      H4333   1.084       .  S
C4327      C4328   1.403       .  A
C4327      H4334   1.083       .  S
C4328      C4329   1.403       .  A
C4328      H4335   1.083       .  S
C4329      C4330   1.405       .  A
C4330      H4336   1.085       .  S
C4337      C4338   1.406       .  A
C4337      C4342   1.405       .  A
C4338      C4339   1.396       .  A
C4338      H4347   1.083       .  S
C4339      C4340   1.401       .  A
C4339      H4348   1.084       .  S
C4340      C4346   1.400       .  A
C4340      C4341   1.415       .  A
C4341      C4343   1.402       .  A
C4341      C4342   1.397       .  A
C4342      H4349   1.084       .  S
C4343      C4344   1.393       .  A
C4343      H4350   1.084       .  S
C4344      C4345   1.400       .  A
C4344      H4351   1.083       .  S
C4345      C4346   1.401       .  A
C4346      H4352   1.084       .  S
C4353      C4354   1.404       .  A
C4353      C4358   1.403       .  A
C4354      C4355   1.398       .  A
C4354      H4363   1.083       .  S
C4355      C4356   1.403       .  A
C4355      H4364   1.084       .  S
C4356      C4362   1.402       .  A
C4356      C4357   1.415       .  A
C4357      C4359   1.401       .  A
C4357      C4358   1.397       .  A
C4358      H4365   1.085       .  S
C4359      C4360   1.393       .  A
C4359      H4366   1.084       .  S
C4360      C4361   1.401       .  A
C4360      H4367   1.083       .  S
C4361      C4362   1.403       .  A
C4362      H4368   1.084       .  S
C4369      C4370   1.403       .  A
C4369      C4374   1.401       .  A
C4370      C4371   1.402       .  A
C4370      H4379   1.083       .  S
C4371      C4372   1.406       .  A
C4371      H4380   1.083       .  S
C4372      C4378   1.405       .  A
C4372      C4373   1.414       .  A
C4373      C4375   1.399       .  A
C4373      C4374   1.395       .  A
C4374      H4381   1.085       .  S
C4375      C4376   1.390       .  A
C4375      H4382   1.084       .  S
C4376      C4377   1.403       .  A
C4376      H4383   1.083       .  S
C4377      C4378   1.407       .  A
C4378      H4384   1.084       .  S
C4385      C4386   1.402       .  A
C4385      C4390   1.401       .  A
C4386      C4387   1.396       .  A
C4386      H4395   1.083       .  S
C4387      C4388   1.403       .  A
C4387      H4396   1.083       .  S
C4388      C4394   1.400       .  A
C4388      C4389   1.414       .  A
C4389      C4391   1.399       .  A
C4389      C4390   1.396       .  A
C4390      H4397   1.085       .  S
C4391      C4392   1.393       .  A
C4391      H4398   1.084       .  S
C4392      C4393   1.407       .  A
C4392      H4399   1.083       .  S
C4393      C4394   1.406       .  A
C4394      H4400   1.084       .  S
C4401      C4402   1.402       .  A
C4401      C4406   1.404       .  A
C4402      C4403   1.401       .  A
C4402      H4411   1.083       .  S
C4403      C4404   1.406       .  A
C4403      H4412   1.083       .  S
C4404      C4410   1.403       .  A
C4404      C4405   1.413       .  A
C4405      C4407   1.400       .  A
C4405      C4406   1.395       .  A
C4406      H4413   1.085       .  S
C4407      C4408   1.392       .  A
C4407      H4414   1.084       .  S
C4408      C4409   1.404       .  A
C4408      H4415   1.083       .  S
C4409      C4410   1.407       .  A
C4410      H4416   1.084       .  S
C4417      C4418   1.404       .  A
C4417      C4422   1.409       .  A
C4418      C4419   1.394       .  A
C4418      H4427   1.083       .  S
C4419      C4420   1.401       .  A
C4419      H4428   1.084       .  S
C4420      C4426   1.400       .  A
C4420      C4421   1.414       .  A
C4421      C4423   1.406       .  A
C4421      C4422   1.408       .  A
C4422      H4429   1.084       .  S
C4423      C4424   1.404       .  A
C4423      H4430   1.083       .  S
C4424      C4425   1.403       .  A
C4424      H4431   1.083       .  S
C4425      C4426   1.405       .  A
C4426      H4432   1.085       .  S
C4433      C4434   1.405       .  A
C4433      C4438   1.405       .  A
C4434      C4435   1.398       .  A
C4434      H4443   1.083       .  S
C4435      C4436   1.403       .  A
C4435      H4444   1.084       .  S
C4436      C4442   1.401       .  A
C4436      C4437   1.414       .  A
C4437      C4439   1.402       .  A
C4437      C4438   1.396       .  A
C4438      H4445   1.084       .  S
C4439      C4440   1.393       .  A
C4439      H4446   1.084       .  S
C4440      C4441   1.399       .  A
C4440      H4447   1.083       .  S
C4441      C4442   1.402       .  A
C4442      H4448   1.084       .  S
C4449      C4450   1.402       .  A
C4449      C4454   1.402       .  A
C4450      C4451   1.396       .  A
C4450      H4459   1.083       .  S
C4451      C4452   1.402       .  A
C4451      H4460   1.083       .  S
C4452      C4458   1.403       .  A
C4452      C4453   1.415       .  A
C4453      C4455   1.399       .  A
C4453      C4454   1.401       .  A
C4454      H4461   1.085       .  S
C4455      C4456   1.394       .  A
C4455      H4462   1.084       .  S
C4456      C4457   1.409       .  A
C4456      H4463   1.083       .  S
C4457      C4458   1.405       .  A
C4458      H4464   1.084       .  S
C4465      C4466   1.405       .  A
C4465      C4470   1.406       .  A
C4466      C4467   1.395       .  A
C4466      H4475   1.083       .  S
C4467      C4468   1.402       .  A
C4467      H4476   1.084       .  S
C4468      C4474   1.402       .  A
C4468      C4469   1.414       .  A
C4469      C4471   1.404       .  A
C4469      C4470   1.405       .  A
C4470      H4477   1.084       .  S
C4471      C4472   1.400       .  A
C4471      H4478   1.083       .  S
C4472      C4473   1.402       .  A
C4472      H4479   1.083       .  S
C4473      C4474   1.405       .  A
C4474      H4480   1.085       .  S
C4481      C4482   1.402       .  A
C4481      C4486   1.405       .  A
C4482      C4483   1.393       .  A
C4482      H4491   1.083       .  S
C4483      C4484   1.401       .  A
C4483      H4492   1.084       .  S
C4484      C4490   1.397       .  A
C4484      C4485   1.414       .  A
C4485      C4487   1.405       .  A
C4485      C4486   1.402       .  A
C4486      H4493   1.084       .  S
C4487      C4488   1.400       .  A
C4487      H4494   1.083       .  S
C4488      C4489   1.402       .  A
C4488      H4495   1.083       .  S
C4489      C4490   1.402       .  A
C4490      H4496   1.085       .  S
C4497      C4498   1.405       .  A
C4497      C4502   1.404       .  A
C4498      C4499   1.396       .  A
C4498      H4507   1.083       .  S
C4499      C4500   1.401       .  A
C4499      H4508   1.084       .  S
C4500      C4506   1.400       .  A
C4500      C4501   1.415       .  A
C4501      C4503   1.402       .  A
C4501      C4502   1.399       .  A
C4502      H4509   1.084       .  S
C4503      C4504   1.395       .  A
C4503      H4510   1.084       .  S
C4504      C4505   1.401       .  A
C4504      H4511   1.083       .  S
C4505      C4506   1.401       .  A
C4506      H4512   1.085       .  S
C4513      C4514   1.403       .  A
C4513      C4518   1.403       .  A
C4514      C4515   1.398       .  A
C4514      H4523   1.083       .  S
C4515      C4516   1.404       .  A
C4515      H4524   1.084       .  S
C4516      C4522   1.404       .  A
C4516      C4517   1.414       .  A
C4517      C4519   1.401       .  A
C4517      C4518   1.402       .  A
C4518      H4525   1.084       .  S
C4519      C4520   1.397       .  A
C4519      H4526   1.084       .  S
C4520      C4521   1.407       .  A
C4520      H4527   1.083       .  S
C4521      C4522   1.409       .  A
C4522      H4528   1.084       .  S
C4529      C4530   1.401       .  A
C4529      C4534   1.404       .  A
C4530      C4531   1.400       .  A
C4530      H4539   1.083       .  S
C4531      C4532   1.405       .  A
C4531      H4540   1.083       .  S
C4532      C4538   1.402       .  A
C4532      C4533   1.413       .  A
C4533      C4535   1.402       .  A
C4533      C4534   1.397       .  A
C4534      H4541   1.085       .  S
C4535      C4536   1.394       .  A
C4535      H4542   1.084       .  S
C4536      C4537   1.403       .  A
C4536      H4543   1.083       .  S
C4537      C4538   1.407       .  A
C4538      H4544   1.084       .  S
C4545      C4546   1.404       .  A
C4545      C4550   1.408       .  A
C4546      C4547   1.396       .  A
C4546      H4555   1.083       .  S
C4547      C4548   1.403       .  A
C4547      H4556   1.084       .  S
C4548      C4554   1.403       .  A
C4548      C4549   1.414       .  A
C4549      C4551   1.406       .  A
C4549      C4550   1.408       .  A
C4550      H4557   1.084       .  S
C4551      C4552   1.403       .  A
C4551      H4558   1.083       .  S
C4552      C4553   1.403       .  A
C4552      H4559   1.083       .  S
C4553      C4554   1.406       .  A
C4554      H4560   1.085       .  S
C4561      C4562   1.404       .  A
C4561      C4566   1.407       .  A
C4562      C4563   1.402       .  A
C4562      H4571   1.083       .  S
C4563      C4564   1.405       .  A
C4563      H4572   1.083       .  S
C4564      C4570   1.408       .  A
C4564      C4565   1.414       .  A
C4565      C4567   1.402       .  A
C4565      C4566   1.404       .  A
C4566      H4573   1.085       .  S
C4567      C4568   1.396       .  A
C4567      H4574   1.084       .  S
C4568      C4569   1.405       .  A
C4568      H4575   1.083       .  S
C4569      C4570   1.407       .  A
C4570      H4576   1.084       .  S
C4577      C4578   1.401       .  A
C4577      C4582   1.403       .  A
C4578      C4579   1.398       .  A
C4578      H4587   1.083       .  S
C4579      C4580   1.405       .  A
C4579      H4588   1.084       .  S
C4580      C4586   1.403       .  A
C4580      C4581   1.414       .  A
C4581      C4583   1.403       .  A
C4581      C4582   1.402       .  A
C4582      H4589   1.085       .  S
C4583      C4584   1.398       .  A
C4583      H4590   1.084       .  S
C4584      C4585   1.404       .  A
C4584      H4591   1.083       .  S
C4585      C4586   1.408       .  A
C4586      H4592   1.084       .  S
C4593      C4594   1.408       .  A
C4593      C4598   1.407       .  A
C4594      C4595   1.391       .  A
C4594      H4603   1.083       .  S
C4595      C4596   1.397       .  A
C4595      H4604   1.084       .  S
C4596      C4602   1.398       .  A
C4596      C4597   1.416       .  A
C4597      C4599   1.404       .  A
C4597      C4598   1.405       .  A
C4598      H4605   1.084       .  S
C4599      C4600   1.399       .  A
C4599      H4606   1.083       .  S
C4600      C4601   1.402       .  A
C4600      H4607   1.083       .  S
C4601      C4602   1.398       .  A
C4602      H4608   1.085       .  S
C4609      C4610   1.408       .  A
C4609      C4614   1.407       .  A
C4610      C4611   1.393       .  A
C4610      H4619   1.083       .  S
C4611      C4612   1.398       .  A
C4611      H4620   1.084       .  S
C4612      C4618   1.398       .  A
C4612      C4613   1.415       .  A
C4613      C4615   1.404       .  A
C4613      C4614   1.403       .  A
C4614      H4621   1.084       .  S
C4615      C4616   1.398       .  A
C4615      H4622   1.083       .  S
C4616      C4617   1.401       .  A
C4616      H4623   1.083       .  S
C4617      C4618   1.399       .  A
C4618      H4624   1.085       .  S
C4625      C4626   1.403       .  A
C4625      C4630   1.404       .  A
C4626      C4627   1.402       .  A
C4626      H4635   1.083       .  S
C4627      C4628   1.406       .  A
C4627      H4636   1.083       .  S
C4628      C4634   1.407       .  A
C4628      C4629   1.414       .  A
C4629      C4631   1.400       .  A
C4629      C4630   1.400       .  A
C4630      H4637   1.085       .  S
C4631      C4632   1.394       .  A
C4631      H4638   1.084       .  S
C4632      C4633   1.405       .  A
C4632      H4639   1.083       .  S
C4633      C4634   1.409       .  A
C4634      H4640   1.084       .  S
C4641      C4642   1.402       .  A
C4641      C4646   1.405       .  A
C4642      C4643   1.404       .  A
C4642      H4651   1.083       .  S
C4643      C4644   1.407       .  A
C4643      H4652   1.083       .  S
C4644      C4650   1.407       .  A
C4644      C4645   1.413       .  A
C4645      C4647   1.402       .  A
C4645      C4646   1.399       .  A
C4646      H4653   1.085       .  S
C4647      C4648   1.395       .  A
C4647      H4654   1.084       .  S
C4648      C4649   1.404       .  A
C4648      H4655   1.083       .  S
C4649      C4650   1.409       .  A
C4650      H4656   1.084       .  S
C4657      C4658   1.407       .  A
C4657      C4662   1.406       .  A
C4658      C4659   1.399       .  A
C4658      H4667   1.083       .  S
C4659      C4660   1.403       .  A
C4659      H4668   1.084       .  S
C4660      C4666   1.404       .  A
C4660      C4661   1.414       .  A
C4661      C4663   1.402       .  A
C4661      C4662   1.400       .  A
C4662      H4669   1.084       .  S
C4663      C4664   1.395       .  A
C4663      H4670   1.084       .  S
C4664      C4665   1.401       .  A
C4664      H4671   1.083       .  S
C4665      C4666   1.404       .  A
C4666      H4672   1.084       .  S
C4673      C4674   1.403       .  A
C4673      C4678   1.406       .  A
C4674      C4675   1.394       .  A
C4674      H4683   1.083       .  S
C4675      C4676   1.401       .  A
C4675      H4684   1.084       .  S
C4676      C4682   1.400       .  A
C4676      C4677   1.415       .  A
C4677      C4679   1.404       .  A
C4677      C4678   1.404       .  A
C4678      H4685   1.084       .  S
C4679      C4680   1.400       .  A
C4679      H4686   1.084       .  S
C4680      C4681   1.403       .  A
C4680      H4687   1.083       .  S
C4681      C4682   1.401       .  A
C4682      H4688   1.085       .  S
C4689      C4690   1.402       .  A
C4689      C4694   1.403       .  A
C4690      C4691   1.395       .  A
C4690      H4699   1.083       .  S
C4691      C4692   1.402       .  A
C4691      H4700   1.084       .  S
C4692      C4698   1.401       .  A
C4692      C4693   1.415       .  A
C4693      C4695   1.402       .  A
C4693      C4694   1.402       .  A
C4694      H4701   1.085       .  S
C4695      C4696   1.397       .  A
C4695      H4702   1.084       .  S
C4696      C4697   1.405       .  A
C4696      H4703   1.083       .  S
C4697      C4698   1.403       .  A
C4698      H4704   1.085       .  S
C4705      C4706   1.403       .  A
C4705      C4710   1.407       .  A
C4706      C4707   1.397       .  A
C4706      H4715   1.083       .  S
C4707      C4708   1.403       .  A
C4707      H4716   1.084       .  S
C4708      C4714   1.405       .  A
C4708      C4709   1.414       .  A
C4709      C4711   1.404       .  A
C4709      C4710   1.409       .  A
C4710      H4717   1.084       .  S
C4711      C4712   1.402       .  A
C4711      H4718   1.083       .  S
C4712      C4713   1.407       .  A
C4712      H4719   1.083       .  S
C4713      C4714   1.410       .  A
C4714      H4720   1.084       .  S
C4721      C4722   1.404       .  A
C4721      C4726   1.410       .  A
C4722      C4723   1.397       .  A
C4722      H4731   1.083       .  S
C4723      C4724   1.403       .  A
C4723      H4732   1.084       .  S
C4724      C4730   1.403       .  A
C4724      C4725   1.413       .  A
C4725      C4727   1.407       .  A
C4725      C4726   1.408       .  A
C4726      H4733   1.084       .  S
C4727      C4728   1.404       .  A
C4727      H4734   1.083       .  S
C4728      C4729   1.404       .  A
C4728      H4735   1.083       .  S
C4729      C4730   1.407       .  A
C4730      H4736   1.085       .  S
C4737      C4738   1.400       .  A
C4737      C4742   1.404       .  A
C4738      C4739   1.395       .  A
C4738      H4747   1.083       .  S
C4739      C4740   1.403       .  A
C4739      H4748   1.084       .  S
C4740      C4746   1.398       .  A
C4740      C4741   1.414       .  A
C4741      C4743   1.404       .  A
C4741      C4742   1.402       .  A
C4742      H4749   1.084       .  S
C4743      C4744   1.399       .  A
C4743      H4750   1.084       .  S
C4744      C4745   1.404       .  A
C4744      H4751   1.083       .  S
C4745      C4746   1.406       .  A
C4746      H4752   1.084       .  S
C4753      C4754   1.404       .  A
C4753      C4758   1.406       .  A
C4754      C4755   1.393       .  A
C4754      H4763   1.083       .  S
C4755      C4756   1.400       .  A
C4755      H4764   1.084       .  S
C4756      C4762   1.399       .  A
C4756      C4757   1.414       .  A
C4757      C4759   1.404       .  A
C4757      C4758   1.406       .  A
C4758      H4765   1.084       .  S
C4759      C4760   1.401       .  A
C4759      H4766   1.083       .  S
C4760      C4761   1.404       .  A
C4760      H4767   1.083       .  S
C4761      C4762   1.405       .  A
C4762      H4768   1.085       .  S
C4769      C4770   1.403       .  A
C4769      C4774   1.406       .  A
C4770      C4771   1.394       .  A
C4770      H4779   1.083       .  S
C4771      C4772   1.401       .  A
C4771      H4780   1.084       .  S
C4772      C4778   1.399       .  A
C4772      C4773   1.414       .  A
C4773      C4775   1.405       .  A
C4773      C4774   1.405       .  A
C4774      H4781   1.084       .  S
C4775      C4776   1.401       .  A
C4775      H4782   1.083       .  S
C4776      C4777   1.403       .  A
C4776      H4783   1.083       .  S
C4777      C4778   1.405       .  A
C4778      H4784   1.085       .  S
C4785      C4786   1.401       .  A
C4785      C4790   1.400       .  A
C4786      C4787   1.396       .  A
C4786      H4795   1.083       .  S
C4787      C4788   1.403       .  A
C4787      H4796   1.084       .  S
C4788      C4794   1.401       .  A
C4788      C4789   1.414       .  A
C4789      C4791   1.400       .  A
C4789      C4790   1.400       .  A
C4790      H4797   1.084       .  S
C4791      C4792   1.396       .  A
C4791      H4798   1.084       .  S
C4792      C4793   1.406       .  A
C4792      H4799   1.083       .  S
C4793      C4794   1.407       .  A
C4794      H4800   1.084       .  S
C4801      C4802   1.404       .  A
C4801      C4806   1.409       .  A
C4802      C4803   1.393       .  A
C4802      H4811   1.083       .  S
C4803      C4804   1.401       .  A
C4803      H4812   1.084       .  S
C4804      C4810   1.396       .  A
C4804      C4805   1.412       .  A
C4805      C4807   1.407       .  A
C4805      C4806   1.405       .  A
C4806      H4813   1.084       .  S
C4807      C4808   1.403       .  A
C4807      H4814   1.083       .  S
C4808      C4809   1.403       .  A
C4808      H4815   1.083       .  S
C4809      C4810   1.405       .  A
C4810      H4816   1.085       .  S
C4817      C4818   1.401       .  A
C4817      C4822   1.403       .  A
C4818      C4819   1.391       .  A
C4818      H4827   1.083       .  S
C4819      C4820   1.400       .  A
C4819      H4828   1.084       .  S
C4820      C4826   1.392       .  A
C4820      C4821   1.414       .  A
C4821      C4823   1.405       .  A
C4821      C4822   1.399       .  A
C4822      H4829   1.084       .  S
C4823      C4824   1.399       .  A
C4823      H4830   1.083       .  S
C4824      C4825   1.401       .  A
C4824      H4831   1.083       .  S
C4825      C4826   1.401       .  A
C4826      H4832   1.085       .  S
C4833      C4834   1.406       .  A
C4833      C4838   1.406       .  A
C4834      C4835   1.396       .  A
C4834      H4843   1.083       .  S
C4835      C4836   1.401       .  A
C4835      H4844   1.084       .  S
C4836      C4842   1.401       .  A
C4836      C4837   1.415       .  A
C4837      C4839   1.403       .  A
C4837      C4838   1.402       .  A
C4838      H4845   1.084       .  S
C4839      C4840   1.396       .  A
C4839      H4846   1.084       .  S
C4840      C4841   1.401       .  A
C4840      H4847   1.083       .  S
C4841      C4842   1.401       .  A
C4842      H4848   1.085       .  S
C4849      C4850   1.401       .  A
C4849      C4854   1.398       .  A
C4850      C4851   1.395       .  A
C4850      H4859   1.083       .  S
C4851      C4852   1.402       .  A
C4851      H4860   1.084       .  S
C4852      C4858   1.399       .  A
C4852      C4853   1.415       .  A
C4853      C4855   1.398       .  A
C4853      C4854   1.398       .  A
C4854      H4861   1.085       .  S
C4855      C4856   1.393       .  A
C4855      H4862   1.084       .  S
C4856      C4857   1.407       .  A
C4856      H4863   1.083       .  S
C4857      C4858   1.404       .  A
C4858      H4864   1.084       .  S
C4865      C4866   1.402       .  A
C4865      C4870   1.407       .  A
C4866      C4867   1.393       .  A
C4866      H4875   1.083       .  S
C4867      C4868   1.401       .  A
C4867      H4876   1.084       .  S
C4868      C4874   1.397       .  A
C4868      C4869   1.413       .  A
C4869      C4871   1.406       .  A
C4869      C4870   1.404       .  A
C4870      H4877   1.084       .  S
C4871      C4872   1.402       .  A
C4871      H4878   1.083       .  S
C4872      C4873   1.403       .  A
C4872      H4879   1.083       .  S
C4873      C4874   1.404       .  A
C4874      H4880   1.085       .  S
C4881      C4882   1.401       .  A
C4881      C4886   1.402       .  A
C4882      C4883   1.398       .  A
C4882      H4891   1.083       .  S
C4883      C4884   1.403       .  A
C4883      H4892   1.083       .  S
C4884      C4890   1.404       .  A
C4884      C4885   1.415       .  A
C4885      C4887   1.400       .  A
C4885      C4886   1.402       .  A
C4886      H4893   1.085       .  S
C4887      C4888   1.396       .  A
C4887      H4894   1.084       .  S
C4888      C4889   1.408       .  A
C4888      H4895   1.083       .  S
C4889      C4890   1.407       .  A
C4890      H4896   1.084       .  S
C4897      C4898   1.408       .  A
C4897      C4902   1.407   1_655  A
C4898      C4899   1.392   1_655  A
C4898      H4907   1.083       .  S
C4899      C4900   1.397       .  A
C4899      H4908   1.084       .  S
C4900      C4906   1.401       .  A
C4900      C4901   1.416       .  A
C4901      C4903   1.404       .  A
C4901      C4902   1.409       .  A
C4902      H4909   1.084       .  S
C4903      C4904   1.400       .  A
C4903      H4910   1.083       .  S
C4904      C4905   1.405       .  A
C4904      H4911   1.083       .  S
C4905      C4906   1.400       .  A
C4906      H4912   1.085       .  S
C4913      C4914   1.409   1_565  A
C4913      C4918   1.409   1_565  A
C4914      C4915   1.396       .  A
C4914      H4923   1.083       .  S
C4915      C4916   1.399       .  A
C4915      H4924   1.084       .  S
C4916      C4922   1.405       .  A
C4916      C4917   1.415       .  A
C4917      C4919   1.404       .  A
C4917      C4918   1.409       .  A
C4918      H4925   1.084   1_545  S
C4919      C4920   1.400       .  A
C4919      H4926   1.083       .  S
C4920      C4921   1.403       .  A
C4920      H4927   1.083       .  S
C4921      C4922   1.402       .  A
C4922      H4928   1.084       .  S
C4929      C4930   1.410       .  A
C4929      C4934   1.405       .  A
C4930      C4931   1.393       .  A
C4930      H4939   1.083       .  S
C4931      C4932   1.398       .  A
C4931      H4940   1.084       .  S
C4932      C4938   1.403       .  A
C4932      C4933   1.416       .  A
C4933      C4935   1.402       .  A
C4933      C4934   1.407       .  A
C4934      H4941   1.084       .  S
C4935      C4936   1.397       .  A
C4935      H4942   1.083       .  S
C4936      C4937   1.403       .  A
C4936      H4943   1.083       .  S
C4937      C4938   1.401       .  A
C4938      H4944   1.085       .  S
C4945      C4946   1.400       .  A
C4945      C4950   1.403       .  A
C4946      C4947   1.394       .  A
C4946      H4955   1.083       .  S
C4947      C4948   1.402       .  A
C4947      H4956   1.084       .  S
C4948      C4954   1.397       .  A
C4948      C4949   1.413       .  A
C4949      C4951   1.403       .  A
C4949      C4950   1.401       .  A
C4950      H4957   1.084       .  S
C4951      C4952   1.399       .  A
C4951      H4958   1.084       .  S
C4952      C4953   1.406       .  A
C4952      H4959   1.083       .  S
C4953      C4954   1.407       .  A
C4954      H4960   1.084       .  S
C4961      C4962   1.408   1_655  A
C4961      C4966   1.409   1_655  A
C4962      C4963   1.393       .  A
C4962      H4971   1.083       .  S
C4963      C4964   1.398       .  A
C4963      H4972   1.084       .  S
C4964      C4970   1.400       .  A
C4964      C4965   1.415       .  A
C4965      C4967   1.405       .  A
C4965      C4966   1.408       .  A
C4966      H4973   1.084   1_455  S
C4967      C4968   1.401       .  A
C4967      H4974   1.083       .  S
C4968      C4969   1.402       .  A
C4968      H4975   1.083       .  S
C4969      C4970   1.400       .  A
C4970      H4976   1.085       .  S
C4977      C4978   1.402       .  A
C4977      C4982   1.400       .  A
C4978      C4979   1.399       .  A
C4978      H4987   1.083       .  S
C4979      C4980   1.404       .  A
C4979      H4988   1.084       .  S
C4980      C4986   1.405       .  A
C4980      C4981   1.414       .  A
C4981      C4983   1.399       .  A
C4981      C4982   1.400       .  A
C4982      H4989   1.085       .  S
C4983      C4984   1.394       .  A
C4983      H4990   1.084       .  S
C4984      C4985   1.407       .  A
C4984      H4991   1.083       .  S
C4985      C4986   1.409       .  A
C4986      H4992   1.084       .  S
C4993      C4994   1.405       .  A
C4993      C4998   1.407       .  A
C4994      C4995   1.395       .  A
C4994      H5003   1.083       .  S
C4995      C4996   1.401       .  A
C4995      H5004   1.084       .  S
C4996      C5002   1.400       .  A
C4996      C4997   1.414       .  A
C4997      C4999   1.403       .  A
C4997      C4998   1.402       .  A
C4998      H5005   1.084       .  S
C4999      C5000   1.397       .  A
C4999      H5006   1.084       .  S
C5000      C5001   1.402       .  A
C5000      H5007   1.083       .  S
C5001      C5002   1.401       .  A
C5002      H5008   1.085       .  S
C5009      C5010   1.406   1_556  A
C5009      C5014   1.409   1_556  A
C5010      C5011   1.395       .  A
C5010      H5019   1.083   1_554  S
C5011      C5012   1.400       .  A
C5011      H5020   1.084       .  S
C5012      C5018   1.399       .  A
C5012      C5013   1.414       .  A
C5013      C5015   1.404       .  A
C5013      C5014   1.401       .  A
C5014      H5021   1.084   1_554  S
C5015      C5016   1.397       .  A
C5015      H5022   1.084       .  S
C5016      C5017   1.401       .  A
C5016      H5023   1.083       .  S
C5017      C5018   1.401       .  A
C5018      H5024   1.085       .  S
C5025      C5026   1.409       .  A
C5025      C5030   1.407       .  A
C5026      C5027   1.396       .  A
C5026      H5035   1.083       .  S
C5027      C5028   1.400       .  A
C5027      H5036   1.084       .  S
C5028      C5034   1.404       .  A
C5028      C5029   1.415       .  A
C5029      C5031   1.403       .  A
C5029      C5030   1.407       .  A
C5030      H5037   1.084       .  S
C5031      C5032   1.399       .  A
C5031      H5038   1.083       .  S
C5032      C5033   1.402       .  A
C5032      H5039   1.083       .  S
C5033      C5034   1.403       .  A
C5034      H5040   1.084       .  S
C5041      C5042   1.409       .  A
C5041      C5046   1.410       .  A
C5042      C5043   1.397       .  A
C5042      H5051   1.083       .  S
C5043      C5044   1.400       .  A
C5043      H5052   1.084       .  S
C5044      C5050   1.405       .  A
C5044      C5045   1.414       .  A
C5045      C5047   1.404       .  A
C5045      C5046   1.408       .  A
C5046      H5053   1.084       .  S
C5047      C5048   1.400       .  A
C5047      H5054   1.083       .  S
C5048      C5049   1.403       .  A
C5048      H5055   1.083       .  S
C5049      C5050   1.403       .  A
C5050      H5056   1.084       .  S
C5057      C5058   1.408       .  A
C5057      C5062   1.408       .  A
C5058      C5059   1.395       .  A
C5058      H5067   1.083       .  S
C5059      C5060   1.399       .  A
C5059      H5068   1.084       .  S
C5060      C5066   1.402       .  A
C5060      C5061   1.415       .  A
C5061      C5063   1.404       .  A
C5061      C5062   1.405       .  A
C5062      H5069   1.084       .  S
C5063      C5064   1.398       .  A
C5063      H5070   1.083       .  S
C5064      C5065   1.402       .  A
C5064      H5071   1.083       .  S
C5065      C5066   1.401       .  A
C5066      H5072   1.085       .  S
C5073      C5074   1.407       .  A
C5073      C5078   1.406       .  A
C5074      C5075   1.393       .  A
C5074      H5083   1.083       .  S
C5075      C5076   1.399       .  A
C5075      H5084   1.084       .  S
C5076      C5082   1.397       .  A
C5076      C5077   1.415       .  A
C5077      C5079   1.403       .  A
C5077      C5078   1.400       .  A
C5078      H5085   1.084       .  S
C5079      C5080   1.395       .  A
C5079      H5086   1.084       .  S
C5080      C5081   1.401       .  A
C5080      H5087   1.083       .  S
C5081      C5082   1.398       .  A
C5082      H5088   1.085       .  S
C5089      C5090   1.402       .  A
C5089      C5094   1.402       .  A
C5090      C5091   1.403       .  A
C5090      H5099   1.083       .  S
C5091      C5092   1.407       .  A
C5091      H5100   1.083       .  S
C5092      C5098   1.404       .  A
C5092      C5093   1.413       .  A
C5093      C5095   1.400       .  A
C5093      C5094   1.394       .  A
C5094      H5101   1.085       .  S
C5095      C5096   1.391       .  A
C5095      H5102   1.084       .  S
C5096      C5097   1.404       .  A
C5096      H5103   1.083       .  S
C5097      C5098   1.408       .  A
C5098      H5104   1.084       .  S
C5105      C5106   1.401       .  A
C5105      C5110   1.401       .  A
C5106      C5107   1.395       .  A
C5106      H5115   1.083       .  S
C5107      C5108   1.402       .  A
C5107      H5116   1.084       .  S
C5108      C5114   1.399       .  A
C5108      C5109   1.415       .  A
C5109      C5111   1.400       .  A
C5109      C5110   1.400       .  A
C5110      H5117   1.084       .  S
C5111      C5112   1.395       .  A
C5111      H5118   1.084       .  S
C5112      C5113   1.407       .  A
C5112      H5119   1.083       .  S
C5113      C5114   1.405       .  A
C5114      H5120   1.084       .  S
C5121      C5122   1.402       .  A
C5121      C5126   1.401       .  A
C5122      C5123   1.400       .  A
C5122      H5131   1.083       .  S
C5123      C5124   1.405       .  A
C5123      H5132   1.083       .  S
C5124      C5130   1.406       .  A
C5124      C5125   1.414       .  A
C5125      C5127   1.401       .  A
C5125      C5126   1.401       .  A
C5126      H5133   1.085       .  S
C5127      C5128   1.396       .  A
C5127      H5134   1.084       .  S
C5128      C5129   1.407       .  A
C5128      H5135   1.083       .  S
C5129      C5130   1.409       .  A
C5130      H5136   1.084       .  S
C5137      C5138   1.400       .  A
C5137      C5142   1.403       .  A
C5138      C5139   1.396       .  A
C5138      H5147   1.083       .  S
C5139      C5140   1.403       .  A
C5139      H5148   1.084       .  S
C5140      C5146   1.396       .  A
C5140      C5141   1.413       .  A
C5141      C5143   1.401       .  A
C5141      C5142   1.393       .  A
C5142      H5149   1.085       .  S
C5143      C5144   1.392       .  A
C5143      H5150   1.084       .  S
C5144      C5145   1.403       .  A
C5144      H5151   1.083       .  S
C5145      C5146   1.404       .  A
C5146      H5152   1.085       .  S
C5153      C5154   1.403       .  A
C5153      C5158   1.404       .  A
C5154      C5155   1.399       .  A
C5154      H5163   1.083       .  S
C5155      C5156   1.403       .  A
C5155      H5164   1.083       .  S
C5156      C5162   1.407       .  A
C5156      C5157   1.416       .  A
C5157      C5159   1.402       .  A
C5157      C5158   1.406       .  A
C5158      H5165   1.084       .  S
C5159      C5160   1.398       .  A
C5159      H5166   1.083       .  S
C5160      C5161   1.402       .  A
C5160      H5167   1.083       .  S
C5161      C5162   1.404       .  A
C5162      H5168   1.084       .  S
C5169      C5170   1.401       .  A
C5169      C5174   1.401       .  A
C5170      C5171   1.396       .  A
C5170      H5179   1.083       .  S
C5171      C5172   1.403       .  A
C5171      H5180   1.083       .  S
C5172      C5178   1.403       .  A
C5172      C5173   1.415       .  A
C5173      C5175   1.400       .  A
C5173      C5174   1.402       .  A
C5174      H5181   1.085       .  S
C5175      C5176   1.396       .  A
C5175      H5182   1.084       .  S
C5176      C5177   1.407       .  A
C5176      H5183   1.083       .  S
C5177      C5178   1.407       .  A
C5178      H5184   1.084       .  S
C5185      C5186   1.404       .  A
C5185      C5190   1.402       .  A
C5186      C5187   1.393       .  A
C5186      H5195   1.084       .  S
C5187      C5188   1.399       .  A
C5187      H5196   1.084       .  S
C5188      C5194   1.402       .  A
C5188      C5189   1.417       .  A
C5189      C5191   1.402       .  A
C5189      C5190   1.407       .  A
C5190      H5197   1.084       .  S
C5191      C5192   1.398       .  A
C5191      H5198   1.083       .  S
C5192      C5193   1.404       .  A
C5192      H5199   1.083       .  S
C5193      C5194   1.402       .  A
C5194      H5200   1.085       .  S
C5201      C5202   1.402       .  A
C5201      C5206   1.404       .  A
C5202      C5203   1.397       .  A
C5202      H5211   1.083       .  S
C5203      C5204   1.403       .  A
C5203      H5212   1.084       .  S
C5204      C5210   1.404       .  A
C5204      C5205   1.414       .  A
C5205      C5207   1.403       .  A
C5205      C5206   1.407       .  A
C5206      H5213   1.084       .  S
C5207      C5208   1.401       .  A
C5207      H5214   1.084       .  S
C5208      C5209   1.407       .  A
C5208      H5215   1.083       .  S
C5209      C5210   1.408       .  A
C5210      H5216   1.084       .  S
C5217      C5218   1.401       .  A
C5217      C5222   1.406       .  A
C5218      C5219   1.396       .  A
C5218      H5227   1.083       .  S
C5219      C5220   1.403       .  A
C5219      H5228   1.084       .  S
C5220      C5226   1.402       .  A
C5220      C5221   1.413       .  A
C5221      C5223   1.405       .  A
C5221      C5222   1.407       .  A
C5222      H5229   1.084       .  S
C5223      C5224   1.403       .  A
C5223      H5230   1.083       .  S
C5224      C5225   1.406       .  A
C5224      H5231   1.083       .  S
C5225      C5226   1.410       .  A
C5226      H5232   1.084       .  S
C5233      C5234   1.403       .  A
C5233      C5238   1.409       .  A
C5234      C5235   1.394       .  A
C5234      H5243   1.083       .  S
C5235      C5236   1.401       .  A
C5235      H5244   1.084       .  S
C5236      C5242   1.399       .  A
C5236      C5237   1.413       .  A
C5237      C5239   1.407       .  A
C5237      C5238   1.407       .  A
C5238      H5245   1.084       .  S
C5239      C5240   1.404       .  A
C5239      H5246   1.083       .  S
C5240      C5241   1.403       .  A
C5240      H5247   1.083       .  S
C5241      C5242   1.404       .  A
C5242      H5248   1.085       .  S
C5249      C5250   1.403       .  A
C5249      C5254   1.405       .  A
C5250      C5251   1.403       .  A
C5250      H5259   1.083       .  S
C5251      C5252   1.406       .  A
C5251      H5260   1.083       .  S
C5252      C5258   1.406       .  A
C5252      C5253   1.413       .  A
C5253      C5255   1.401       .  A
C5253      C5254   1.397       .  A
C5254      H5261   1.085       .  S
C5255      C5256   1.393       .  A
C5255      H5262   1.084       .  S
C5256      C5257   1.403       .  A
C5256      H5263   1.083       .  S
C5257      C5258   1.408       .  A
C5258      H5264   1.084       .  S
