geometry optimzed in LAMMPS
_audit_creation_date              2020-11-30 
_audit_creation_method            'lammps2cif' 
_symmetry_space_group_name_H-M    'P1' 
_symmetry_Int_Tables_number       1 
_symmetry_cell_setting            triclinic 
loop_ 
_symmetry_equiv_pos_as_xyz 
  x,y,z 
_cell_length_a                    39.11060714721251 
_cell_length_b                    38.97337398061945 
_cell_length_c                    38.922494489081494 
_cell_angle_alpha                 90.07427599126784 
_cell_angle_beta                  89.832793069751 
_cell_angle_gamma                 89.80077140741243 
loop_ 
_atom_site_label 
_atom_site_type_symbol 
_atom_site_fract_x 
_atom_site_fract_y 
_atom_site_fract_z 
_atom_site_charge 
Fe1        Fe  0.34032113  0.04218735  0.33623429     1.65780
Fe2        Fe  0.32994047  0.95687761  0.33838764     1.73250
Fe3        Fe  0.28714061  0.00244833  0.28280214     1.54420
O4          O  0.27437792  0.05204254  0.29209525    -0.82200
O5          O  0.34177899  0.93703141  0.28881463    -0.80510
O6          O  0.29041810  0.06232727  0.34527900    -0.84710
O7          O  0.33876683  0.06206809  0.28374824    -0.79570
O8          O  0.24961301  0.98823304  0.31509377    -0.81340
O9          O  0.38297888  0.96984800  0.34438694    -0.84080
C10         C  0.33340337  0.04781941  0.25403343     0.96680
C11         C  0.26879976  0.06548180  0.32083072     1.04120
O12         O  0.31960956  0.00044212  0.31982866    -1.13070
O13         O  0.31814603  0.97432046  0.38791376    -0.75500
O14         O  0.34363274  0.02479298  0.39017768    -0.78990
O15         O  0.32641823  0.01641932  0.25197551    -0.79680
C16         C  0.33158489  0.99812153  0.40592254     0.95580
O17         O  0.39037753  0.02366303  0.32718442    -0.77630
O18         O  0.27736051  0.94170167  0.33297514    -0.82830
C19         C  0.31975553  0.93604153  0.26468298     0.98210
C20         C  0.24945809  0.95762392  0.32518512     1.04120
O21         O  0.29251231  0.95288149  0.26692135    -0.78470
C22         C  0.40308892  0.99466025  0.33559976     1.02420
Fe23       Fe  0.41520563  0.12657939  0.33992668     1.65780
Fe24       Fe  0.50082467  0.12134859  0.33582832     1.73250
Fe25       Fe  0.46138855  0.16835260  0.28036693     1.54420
O26         O  0.41441855  0.15921131  0.26180146    -0.82200
O27         O  0.51580380  0.17305416  0.34666512    -0.80510
O28         O  0.39043572  0.11741189  0.29159205    -0.84710
O29         O  0.40016470  0.18129908  0.33479139    -0.79570
O30         O  0.47949837  0.12814124  0.25297639    -0.81340
O31         O  0.48457983  0.11469711  0.38591042    -0.84080
C32         C  0.41515678  0.20888374  0.32285081     0.96680
C33         C  0.39115260  0.13752519  0.26551832     1.04120
O34         O  0.45810229  0.13835862  0.31915289    -1.13070
O35         O  0.48503302  0.07273465  0.32422529    -0.75500
O36         O  0.43149545  0.07084702  0.34319868    -0.78990
O37         O  0.44397781  0.20792391  0.30846175    -0.79680
C38         C  0.45961170  0.05484782  0.33363063     0.95580
O39         O  0.43320164  0.13641487  0.39140519    -0.77630
O40         O  0.52369382  0.12163380  0.28730274    -0.82830
C41         C  0.51827691  0.19372596  0.32131967     0.98210
C42         C  0.51073018  0.12175813  0.25727013     1.04120
O43         O  0.50910571  0.18362257  0.29224453    -0.78470
C44         C  0.46093900  0.12578737  0.40526127     1.02420
Fe45       Fe  0.50215663  0.88446933  0.33389526     1.65780
Fe46       Fe  0.41627795  0.87811591  0.33586931     1.73250
Fe47       Fe  0.46494963  0.82269964  0.29258137     1.54420
O48         O  0.50753924  0.84004674  0.26805850    -0.82200
O49         O  0.39933622  0.82916708  0.35033959    -0.80510
O50         O  0.51288649  0.89509185  0.28192630    -0.84710
O51         O  0.53252011  0.83794391  0.32827014    -0.79570
O52         O  0.43799216  0.84257119  0.25387262    -0.81340
O53         O  0.43556577  0.88535507  0.38860281    -0.84080
C54         C  0.52057441  0.80742105  0.32854120     0.96680
C55         C  0.51618867  0.87021646  0.26054544     1.04120
O56         O  0.46009470  0.86328522  0.31946115    -1.13070
O57         O  0.42668316  0.92871881  0.32213130    -0.75500
O58         O  0.47874610  0.93446156  0.34179482    -0.78990
O59         O  0.48952041  0.80435552  0.33380702    -0.79680
C60         C  0.45049748  0.94833026  0.33233232     0.95580
O61         O  0.49012215  0.87084179  0.38390225    -0.77630
O62         O  0.39686599  0.87025297  0.28408211    -0.82830
C63         C  0.40256298  0.80184712  0.33280603     0.98210
C64         C  0.40936165  0.85755919  0.25574899     1.04120
O65         O  0.42399266  0.79871339  0.30939816    -0.78470
C66         C  0.46437041  0.87741925  0.40312597     1.02420
Fe67       Fe  0.57125627  0.95600056  0.33056909     1.65780
Fe68       Fe  0.58150143  0.04168806  0.33866858     1.73250
Fe69       Fe  0.62960415  0.99548478  0.28733489     1.54410
O70         O  0.65875279  0.97724591  0.32518497    -0.82200
O71         O  0.58315892  0.06055158  0.28536302    -0.80510
O72         O  0.62371025  0.93271725  0.33435680    -0.84710
O73         O  0.56486004  0.94599351  0.27591715    -0.79570
O74         O  0.64824997  0.04263319  0.29342815    -0.81340
O75         O  0.52849773  0.03210754  0.33567332    -0.84080
C76         C  0.59198204  0.94394483  0.25817749     0.96680
C77         C  0.65451390  0.94595215  0.33230141     1.04120
O78         O  0.59337701  0.99826597  0.32034761    -1.13070
O79         O  0.58149411  0.02266733  0.39058811    -0.75500
O80         O  0.57294988  0.96692166  0.38384332    -0.78990
O81         O  0.61831174  0.94755762  0.27458447    -0.79680
C82         C  0.57757873  0.99280161  0.40397621     0.95580
O83         O  0.52035393  0.97683762  0.32866498    -0.77630
O84         O  0.63342256  0.05483118  0.34605950    -0.82830
C85         C  0.58875221  0.04570794  0.25568173     0.98210
C86         C  0.65489326  0.05589826  0.32157873     1.04120
O87         O  0.59663383  0.01443714  0.25302503    -0.78470
C88         C  0.50766783  0.00694508  0.33248232     1.02420
C89         C  0.44239588  0.98782473  0.33423120     0.00030
C90         C  0.46757858  0.01463047  0.33365006     0.00030
Fe91       Fe  0.49935938  0.87422806  0.57716244     1.65780
Fe92       Fe  0.41265497  0.87972929  0.58021006     1.73250
Fe93       Fe  0.45277181  0.81854629  0.62013985     1.54420
O94         O  0.49778579  0.79790808  0.60778498    -0.82200
O95         O  0.39993989  0.88631511  0.63307836    -0.80510
O96         O  0.51666890  0.82498375  0.56201868    -0.84710
O97         O  0.51876938  0.86451057  0.62886961    -0.79570
O98         O  0.43067521  0.79814703  0.57817639    -0.81340
O99         O  0.43253264  0.93131699  0.57743406    -0.84080
C100        C  0.50544706  0.85287871  0.65725195     0.96680
C101        C  0.51651896  0.79912239  0.58193230     1.04120
O102        O  0.45564328  0.85906543  0.59314021    -1.13070
O103        O  0.42636353  0.87133400  0.52913797    -0.75500
O104        O  0.48167073  0.88218005  0.52421619    -0.78990
O105        O  0.47522517  0.84195775  0.65934402    -0.79680
C106        C  0.45244627  0.87642854  0.50981981     0.95580
O107        O  0.48666661  0.92489429  0.59127257    -0.77630
O108        O  0.38577662  0.83092605  0.58089374    -0.82830
C109        C  0.39718925  0.85946758  0.65182951     0.98210
C110        C  0.39893930  0.80066562  0.58136662     1.04120
O111        O  0.40755667  0.83107455  0.64099219    -0.78470
C112        C  0.46160487  0.94484809  0.58400557     1.02420
Fe113      Fe  0.57998719  0.95211754  0.57079786     1.65780
Fe114      Fe  0.57394704  0.03726280  0.58455445     1.73250
Fe115      Fe  0.62541138  0.98897909  0.63027403     1.54420
O116        O  0.58726416  0.96989389  0.65930681    -0.82200
O117        O  0.62711602  0.05446776  0.58307198    -0.80510
O118        O  0.57478977  0.92843644  0.62107617    -0.84710
O119        O  0.63269381  0.93799474  0.56568598    -0.79570
O120        O  0.62009985  0.03589968  0.64867343    -0.81340
O121        O  0.57585484  0.02819846  0.53126909    -0.84080
C122        C  0.65120915  0.93355059  0.59205663     0.96680
C123        C  0.57712658  0.93971976  0.65247166     1.04120
O124        O  0.59224716  0.99305748  0.59423265    -1.13070
O125        O  0.52180210  0.02082112  0.58590080    -0.75500
O126        O  0.52786428  0.96588136  0.57242921    -0.78990
O127        O  0.63911743  0.94065154  0.62053999    -0.79680
C128        C  0.50836060  0.99156338  0.57961062     0.95580
O129        O  0.58410064  0.97334873  0.52090433    -0.77630
O130        O  0.56764447  0.04901238  0.63776366    -0.82830
C131        C  0.65697478  0.03985915  0.58709058     0.98210
C132        C  0.59262793  0.04842276  0.65844271     1.04120
O133        O  0.66031745  0.00911277  0.59761162    -0.78470
C134        C  0.57990220  0.00370097  0.50958840     1.02420
Fe135      Fe  0.57675604  0.87492627  0.49547648     1.65780
Fe136      Fe  0.58287965  0.87948455  0.40997145     1.73250
Fe137      Fe  0.63342415  0.83001901  0.45163163     1.54410
O138        O  0.64465364  0.83383161  0.50156365    -0.82200
O139        O  0.57288656  0.82715928  0.39397261    -0.80510
O140        O  0.62794993  0.88520561  0.51470055    -0.84710
O141        O  0.58077006  0.81980117  0.51045891    -0.79570
O142        O  0.66336935  0.87045611  0.44031609    -0.81340
O143        O  0.53127274  0.88441751  0.42580550    -0.84080
C144        C  0.58949237  0.79159636  0.49402598     0.96680
C145        C  0.65052885  0.86130210  0.51629456     1.04120
O146        O  0.59625818  0.86169769  0.45290932    -1.13070
O147        O  0.59334649  0.92838585  0.42645863    -0.75500
O148        O  0.57177487  0.92941913  0.47895894    -0.78990
O149        O  0.60084642  0.79227573  0.46372608    -0.79680
C150        C  0.58174680  0.94578157  0.45150214     0.95580
O151        O  0.52485049  0.86635724  0.47903049    -0.77630
O152        O  0.63493319  0.88035714  0.39199010    -0.82830
C153        C  0.59898507  0.80744309  0.39368735     0.98210
C154        C  0.66322504  0.87792665  0.40886258     1.04120
O155        O  0.62635240  0.82099564  0.40130163    -0.78470
C156        C  0.51129053  0.87594921  0.45061999     1.02420
C157        C  0.57912030  0.98575413  0.44415446     0.00030
C158        C  0.57935709  0.01216524  0.47013429     0.00030
C159        C  0.47147635  0.87656566  0.44326422     0.00030
C160        C  0.44544006  0.87639858  0.46958307     0.00030
C161        C  0.44299136  0.01105107  0.58191548     0.00030
C162        C  0.46898238  0.98468395  0.58179035     0.00030
Fe163      Fe  0.57345747  0.12336503  0.50120489     1.65780
Fe164      Fe  0.58050063  0.11871623  0.41455656     1.73250
Fe165      Fe  0.62831306  0.16950140  0.45919672     1.54420
O166        O  0.61808471  0.18346150  0.50696631    -0.82200
O167        O  0.63293768  0.10799671  0.40222022    -0.80510
O168        O  0.56425930  0.17619881  0.51363837    -0.84710
O169        O  0.62540187  0.12284006  0.52327911    -0.79570
O170        O  0.59457802  0.20307800  0.43991841    -0.81340
O171        O  0.57642331  0.06635157  0.43338251    -0.84080
C172        C  0.65557893  0.12587396  0.50924065     0.96680
C173        C  0.59004900  0.19581019  0.51506708     1.04120
O174        O  0.59310614  0.13613302  0.45814571    -1.13070
O175        O  0.52876511  0.12795467  0.42567861    -0.75500
O176        O  0.52189152  0.12155830  0.48164351    -0.78990
O177        O  0.65902897  0.13310114  0.47781933    -0.79680
C178        C  0.50872082  0.12539537  0.45170064     0.95580
O179        O  0.58032954  0.07175395  0.48958081    -0.77630
O180        O  0.58367940  0.17129304  0.39360381    -0.82830
C181        C  0.65421095  0.13262904  0.40098030     0.98210
C182        C  0.58788579  0.20111102  0.40827997     1.04120
O183        O  0.64533054  0.16122917  0.41198525    -0.78470
C184        C  0.57869642  0.05226109  0.46322449     1.02420
Fe185      Fe  0.49356383  0.12046096  0.57793037     1.65780
Fe186      Fe  0.40719111  0.12369336  0.58066783     1.73250
Fe187      Fe  0.45127429  0.17195129  0.63286339     1.54410
O188        O  0.50026364  0.16386500  0.64707938    -0.82200
O189        O  0.38994111  0.17699514  0.57555281    -0.80510
O190        O  0.51198006  0.11185914  0.62916143    -0.84710
O191        O  0.51207262  0.17296367  0.57949537    -0.79570
O192        O  0.43422925  0.13570476  0.66537842    -0.81340
O193        O  0.42174550  0.12342734  0.52899434    -0.84080
C194        C  0.49831225  0.20251661  0.58681028     0.96680
C195        C  0.51378643  0.13532688  0.65212881     1.04120
O196        O  0.45082021  0.13788262  0.59638051    -1.13070
O197        O  0.42214378  0.07131073  0.58346501    -0.75500
O198        O  0.47800860  0.06658674  0.57666137    -0.78990
O199        O  0.46807359  0.20545375  0.59804606    -0.79680
C200        C  0.44879811  0.05187508  0.58065705     0.95580
O201        O  0.47782945  0.12731230  0.52507642    -0.77630
O202        O  0.38986664  0.12189528  0.63237073    -0.82830
C203        C  0.38803476  0.19834846  0.60076888     0.98210
C204        C  0.40323035  0.12718497  0.66207464     1.04120
O205        O  0.40227158  0.19041413  0.62839401    -0.78470
C206        C  0.44854297  0.12578475  0.51023931     1.02420
C207        C  0.46896429  0.12634415  0.44453126     0.00030
C208        C  0.44275029  0.12670484  0.47005198     0.00030
Fe209      Fe  0.33635157  0.11785330  0.41472691     1.65780
Fe210      Fe  0.33639774  0.13103632  0.49955083     1.73250
Fe211      Fe  0.28658897  0.17683130  0.45200072     1.54410
O212        O  0.29871921  0.18816698  0.40274097    -0.82200
O213        O  0.28632513  0.11870605  0.51431387    -0.80510
O214        O  0.34899386  0.16554833  0.39156211    -0.84710
O215        O  0.28379218  0.12132999  0.39377588    -0.79570
O216        O  0.31989569  0.21297482  0.46818736    -0.81340
O217        O  0.34365919  0.07759197  0.48803543    -0.84080
C218        C  0.25480570  0.13003939  0.40805096     0.96680
C219        C  0.32678688  0.18923895  0.38743935     1.04120
O220        O  0.32068268  0.14167318  0.45512057    -1.13070
O221        O  0.38516461  0.14339339  0.48360196    -0.75500
O222        O  0.38917440  0.11431685  0.43468474    -0.78990
O223        O  0.25370486  0.14051739  0.43828156    -0.79680
C224        C  0.40371651  0.12850140  0.46114280     0.95580
O225        O  0.32532972  0.06834033  0.43523502    -0.77630
O226        O  0.33065813  0.18392469  0.51597799    -0.82830
C227        C  0.26281422  0.14122290  0.51295850     0.98210
C228        C  0.32653988  0.21263077  0.49983116     1.04120
O229        O  0.26841883  0.17015207  0.49997420    -0.78470
C230        C  0.33480495  0.05633391  0.46428840     1.02420
Fe231      Fe  0.33384210  0.88441367  0.50066728     1.65780
Fe232      Fe  0.34081461  0.87782380  0.41456963     1.73250
Fe233      Fe  0.28406100  0.83450872  0.45716262     1.54410
O234        O  0.31966631  0.80018216  0.47162983    -0.82200
O235        O  0.28858821  0.88428662  0.39596086    -0.80510
O236        O  0.33446554  0.83003970  0.51854328    -0.84710
O237        O  0.28226674  0.89225379  0.51736811    -0.79570
O238        O  0.28850035  0.82095086  0.40846652    -0.81340
O239        O  0.34132587  0.93091321  0.42635644    -0.84080
C240        C  0.26227601  0.86686397  0.52000473     0.96680
C241        C  0.32888322  0.80089651  0.50258759     1.04120
O242        O  0.32022589  0.86715066  0.45749698    -1.13070
O243        O  0.39274898  0.87284348  0.43186820    -0.75500
O244        O  0.38538641  0.88119384  0.48711637    -0.78990
O245        O  0.27069911  0.83940523  0.50670070    -0.79680
C246        C  0.40575701  0.87680271  0.46173939     0.95580
O247        O  0.33309315  0.93670325  0.48239101    -0.77630
O248        O  0.34280220  0.82388999  0.40117198    -0.82830
C249        C  0.25810231  0.88187515  0.40949818     0.98210
C250        C  0.31513043  0.80687291  0.39887253     1.04120
O251        O  0.25357548  0.87287113  0.44066724    -0.78470
C252        C  0.33660901  0.95056711  0.45257875     1.02420
Fe253      Fe  0.33525490  0.95939613  0.57501458     1.65780
Fe254      Fe  0.33881985  0.04421757  0.58623090     1.73250
Fe255      Fe  0.28538349  0.99900771  0.63148110     1.54420
O256        O  0.25138269  0.98427887  0.59608978    -0.82200
O257        O  0.33463404  0.06009544  0.63835896    -0.80510
O258        O  0.28278316  0.94041644  0.57644513    -0.84710
O259        O  0.34452172  0.93712379  0.62505720    -0.79570
O260        O  0.27079409  0.04767818  0.62494718    -0.81340
O261        O  0.38609148  0.02543424  0.59986999    -0.84080
C262        C  0.32104189  0.93522803  0.64816646     0.96680
C263        C  0.25345874  0.95433640  0.58405060     1.04120
O264        O  0.31970790  0.00071177  0.59641851    -1.13070
O265        O  0.34571274  0.03272610  0.53285761    -0.75500
O266        O  0.32624426  0.98030680  0.52500340    -0.78990
O267        O  0.29331280  0.95037801  0.64408418    -0.79680
C268        C  0.33610188  0.00889868  0.51215484     0.95580
O269        O  0.38858399  0.97668381  0.57157640    -0.77630
O270        O  0.28974372  0.06336672  0.57428404    -0.82830
C271        C  0.32957996  0.04385090  0.66656018     0.98210
C272        C  0.26649970  0.06314128  0.59726212     1.04120
O273        O  0.32061360  0.01307248  0.66626283    -0.78470
C274        C  0.40398998  0.00275736  0.58496297     1.02420
C275        C  0.33447717  0.99070560  0.44582051     0.00030
C276        C  0.33513230  0.01675893  0.47231618     0.00030
Fe277      Fe  0.33820076  0.38034582  0.99997453     1.65780
Fe278      Fe  0.33810613  0.36668292  0.91506751     1.73250
Fe279      Fe  0.28719061  0.32475801  0.96425359     1.54420
O280        O  0.29443725  0.32162721  0.01486200    -0.82200
O281        O  0.28726715  0.37346229  0.89614817    -0.80510
O282        O  0.34778925  0.32757754  0.01925286    -0.84710
O283        O  0.28475703  0.38219099  0.01771083    -0.79570
O284        O  0.32488708  0.28976032  0.95547052    -0.81340
O285        O  0.34084396  0.42116745  0.92574567    -0.84080
C286        C  0.25567717  0.37561848  0.00258304     0.96680
C287        C  0.32167778  0.30806731  0.02265391     1.04120
O288        O  0.32103977  0.35931683  0.95917036    -1.13070
O289        O  0.38734683  0.35775924  0.93166181    -0.75500
O290        O  0.39074422  0.38313723  0.98195399    -0.78990
O291        O  0.25442431  0.36374851  0.97243994    -0.79680
C292        C  0.40559891  0.37111973  0.95492692     0.95580
O293        O  0.33110092  0.43147138  0.98099485    -0.77630
O294        O  0.33768672  0.31222779  0.90453891    -0.82830
C295        C  0.26640831  0.34831472  0.89716596     0.98210
C296        C  0.33452215  0.28609244  0.92480253     1.04120
O297        O  0.27363639  0.32247423  0.91443475    -0.78470
C298        C  0.33626678  0.44308636  0.95057023     1.02420
Fe299      Fe  0.41411668  0.38257017  0.07527734     1.65780
Fe300      Fe  0.49906106  0.37698401  0.08525747     1.73250
Fe301      Fe  0.44846701  0.33063585  0.13229619     1.54420
O302        O  0.39950233  0.34178718  0.14223440    -0.82200
O303        O  0.51254557  0.32411126  0.07726602    -0.80510
O304        O  0.39490482  0.39504742  0.12582819    -0.84710
O305        O  0.39051059  0.33152675  0.07851141    -0.79570
O306        O  0.46532368  0.36459342  0.16776649    -0.81340
O307        O  0.48818210  0.38056762  0.03234100    -0.84080
C308        C  0.40314506  0.30168702  0.08660303     0.96680
C309        C  0.38988273  0.37153951  0.14830077     1.04120
O310        O  0.45393395  0.36451691  0.09712598    -1.13070
O311        O  0.48694816  0.42872213  0.09273018    -0.75500
O312        O  0.43506560  0.43454434  0.07100611    -0.78990
O313        O  0.43402353  0.29908692  0.09462264    -0.79680
C314        C  0.46318130  0.44835057  0.08158715     0.95580
O315        O  0.43330126  0.37081454  0.02472030    -0.77630
O316        O  0.51307072  0.37529957  0.13802679    -0.82830
C317        C  0.51004159  0.30313369  0.10226239     0.98210
C318        C  0.49702270  0.37134660  0.16671725     1.04120
O319        O  0.49548894  0.31269535  0.12904521    -0.78470
C320        C  0.46321482  0.37530131  0.01178503     1.02420
Fe321      Fe  0.57412751  0.37523984  0.91071390     1.65780
Fe322      Fe  0.58363105  0.38371705  0.99699241     1.73250
Fe323      Fe  0.62797207  0.32717970  0.95443424     1.54420
O324        O  0.62030724  0.30760354  0.90723278    -0.82200
O325        O  0.63638062  0.39197281  0.00687947    -0.80510
O326        O  0.56841785  0.32366279  0.89355249    -0.84710
O327        O  0.62598237  0.37589302  0.88953541    -0.79570
O328        O  0.59232158  0.29759144  0.97623217    -0.81340
O329        O  0.58233680  0.43435053  0.97717724    -0.84080
C330        C  0.65594396  0.37073818  0.90324409     0.96680
C331        C  0.59355103  0.30293520  0.89064587     1.04120
O332        O  0.59409037  0.36267183  0.95367725    -1.13070
O333        O  0.53118906  0.37834256  0.98860439    -0.75500
O334        O  0.52312878  0.37407927  0.93256776    -0.78990
O335        O  0.65999219  0.36037980  0.93365287    -0.79680
C336        C  0.51062296  0.37575834  0.96323442     0.95580
O337        O  0.57672590  0.42801686  0.92159207    -0.77630
O338        O  0.58441000  0.33326700  0.02039907    -0.82830
C339        C  0.65655888  0.36660864  0.00976202     0.98210
C340        C  0.58725164  0.30247741  0.00796276     1.04120
O341        O  0.64665981  0.33757881  0.00107305    -0.78470
C342        C  0.57971866  0.44791721  0.94759997     1.02420
Fe343      Fe  0.49609362  0.37183675  0.83813531     1.65780
Fe344      Fe  0.41013819  0.38477085  0.83609307     1.73250
Fe345      Fe  0.44764190  0.32819744  0.78660988     1.54410
O346        O  0.46976115  0.35891053  0.75194914    -0.82200
O347        O  0.38468461  0.33545063  0.83575902    -0.80510
O348        O  0.51514305  0.37031486  0.78549207    -0.84710
O349        O  0.50604921  0.31798813  0.84637002    -0.79570
O350        O  0.39986770  0.34001719  0.77028071    -0.81340
O351        O  0.42335477  0.37881981  0.88748777    -0.84080
C352        C  0.50522728  0.29698423  0.82129895     0.96680
C353        C  0.50090307  0.36710237  0.75547742     1.04120
O354        O  0.45153751  0.36347602  0.82023984    -1.13070
O355        O  0.43299964  0.43371478  0.83709969    -0.75500
O356        O  0.48845455  0.42511233  0.83179651    -0.78990
O357        O  0.49324805  0.30725575  0.79365699    -0.79680
C358        C  0.46296316  0.44592299  0.83367499     0.95580
O359        O  0.47924727  0.37382020  0.89087235    -0.77630
O360        O  0.39466692  0.39391007  0.78496931    -0.82830
C361        C  0.39767440  0.30519038  0.83152947     0.98210
C362        C  0.38923350  0.36952597  0.76397309     1.04120
O363        O  0.42887385  0.30151308  0.82545488    -0.78470
C364        C  0.45013967  0.37563035  0.90601532     1.02420
C365        C  0.44465497  0.37387772  0.94634757     0.00030
C366        C  0.47108004  0.37464693  0.97184359     0.00030
Fe367      Fe  0.57424808  0.62175134  0.91503773     1.65780
Fe368      Fe  0.58363882  0.62262961  0.00051848     1.73250
Fe369      Fe  0.62605316  0.67636154  0.95438810     1.54420
O370        O  0.63389017  0.66714371  0.90471503    -0.82200
O371        O  0.57477938  0.67411122  0.01903359    -0.80510
O372        O  0.62575246  0.61349697  0.89607828    -0.84710
O373        O  0.57176276  0.67530630  0.89679476    -0.79570
O374        O  0.66452008  0.64481099  0.96746364    -0.81340
O375        O  0.53155273  0.61819598  0.98822900    -0.84080
C376        C  0.57497281  0.70463959  0.91266701     0.96680
C377        C  0.64539590  0.63946946  0.89426207     1.04120
O378        O  0.59430081  0.63895616  0.95687186    -1.13070
O379        O  0.59233015  0.57236508  0.98508115    -0.75500
O380        O  0.57370384  0.56813957  0.93180378    -0.78990
O381        O  0.58444507  0.70569742  0.94353840    -0.79680
C382        C  0.58289025  0.55353216  0.96009311     0.95580
O383        O  0.52322321  0.62818937  0.93294767    -0.77630
O384        O  0.63587672  0.62450468  0.01280915    -0.82830
C385        C  0.59847745  0.69671553  0.01974734     0.98210
C386        C  0.66392617  0.63258626  0.99761109     1.04120
O387        O  0.62548547  0.69139221  0.00384229    -0.78470
C388        C  0.51100952  0.62307435  0.96301238     1.02420
Fe389      Fe  0.49746998  0.61264264  0.83425474     1.65780
Fe390      Fe  0.41307822  0.62334633  0.83920585     1.73250
Fe391      Fe  0.45686065  0.66801792  0.78342356     1.54420
O392        O  0.50623674  0.68065014  0.79244192    -0.82200
O393        O  0.39179267  0.61152085  0.79066443    -0.80510
O394        O  0.51787364  0.66099076  0.84451777    -0.84710
O395        O  0.51765848  0.61546228  0.78158858    -0.79570
O396        O  0.44090685  0.70480140  0.81687272    -0.81340
O397        O  0.42708162  0.57083796  0.84605956    -0.84080
C398        C  0.50332933  0.62181518  0.75217062     0.96680
C399        C  0.52103770  0.68334646  0.82088904     1.04120
O400        O  0.45578436  0.63411299  0.81905314    -1.13070
O401        O  0.43185518  0.63744823  0.88656062    -0.75500
O402        O  0.48027905  0.60870147  0.88863612    -0.78990
O403        O  0.47238418  0.63088674  0.75057581    -0.79680
C404        C  0.45469140  0.62303838  0.90451653     0.95580
O405        O  0.47834179  0.56387382  0.82336404    -0.77630
O406        O  0.39641871  0.67439006  0.83486140    -0.82830
C407        C  0.39019725  0.63407678  0.76688702     0.98210
C408        C  0.41036758  0.70314350  0.82746019     1.04120
O409        O  0.40750418  0.66117321  0.76835242    -0.78470
C410        C  0.45060158  0.55089314  0.83408945     1.02420
Fe411      Fe  0.57201211  0.53943272  0.83392788     1.65780
Fe412      Fe  0.58117323  0.45450151  0.83665381     1.73250
Fe413      Fe  0.62710013  0.49864121  0.78254316     1.54410
O414        O  0.59241311  0.51677491  0.74966899    -0.79580
O415        O  0.63173561  0.43462613  0.83058533    -0.80510
O416        O  0.57416953  0.56031845  0.78217565    -0.84710
O417        O  0.62122550  0.55873336  0.84460850    -0.79570
O418        O  0.61724860  0.45078225  0.76580929    -0.81340
O419        O  0.59672538  0.47266796  0.88391876    -0.84080
C420        C  0.64482538  0.56067408  0.82197822     0.96680
C421        C  0.58140401  0.54701255  0.75248830     1.04120
O422        O  0.59268158  0.49767163  0.81759876    -1.13070
O423        O  0.52930759  0.46947873  0.84568112    -0.75500
O424        O  0.52235853  0.52092345  0.82359852    -0.78990
O425        O  0.64205670  0.54676390  0.79309467    -0.79680
C426        C  0.50919279  0.49307465  0.83439806     0.95580
O427        O  0.56837737  0.52155475  0.88705009    -0.77630
O428        O  0.56712012  0.43654981  0.78767148    -0.82830
C429        C  0.66053089  0.44946201  0.82541149     0.98210
C430        C  0.58885936  0.43612588  0.76318783     1.04120
O431        O  0.66208295  0.48023425  0.81575586    -0.78470
C432        C  0.58248134  0.49569488  0.90216275     1.02420
C433        C  0.46981736  0.48556935  0.83273765     0.00030
C434        C  0.44341089  0.51183116  0.83138946     0.00030
C435        C  0.58065815  0.48793607  0.94130267     0.00030
C436        C  0.58142967  0.51376383  0.96757058     0.00030
C437        C  0.47181993  0.62326222  0.97086840     0.00030
C438        C  0.44680813  0.62226322  0.94427241     0.00030
Fe439      Fe  0.41669792  0.62438893  0.07856928     1.65780
Fe440      Fe  0.50288277  0.62073276  0.07921812     1.73250
Fe441      Fe  0.46103850  0.67175847  0.13079055     1.54410
O442        O  0.41356642  0.69012804  0.12352276    -0.82200
O443        O  0.51913945  0.60909982  0.12947293    -0.80510
O444        O  0.40244155  0.67642588  0.07013380    -0.84710
O445        O  0.39660399  0.62731352  0.13058728    -0.79570
O446        O  0.47938560  0.70373997  0.09517224    -0.81340
O447        O  0.48281246  0.56850880  0.07409350    -0.84080
C448        C  0.41095004  0.63079063  0.16041666     0.96680
C449        C  0.40043398  0.69737920  0.09537358     1.04120
O450        O  0.46016375  0.63785460  0.09573521    -1.13070
O451        O  0.48962061  0.63252853  0.02955369    -0.75500
O452        O  0.43531169  0.61924220  0.02574082    -0.78990
O453        O  0.44252344  0.63647710  0.16339502    -0.79680
C454        C  0.46419212  0.62526692  0.01080420     0.95580
O455        O  0.42786873  0.57325559  0.08725581    -0.77630
O456        O  0.52499504  0.67246684  0.08213266    -0.82830
C457        C  0.52244652  0.63358648  0.15079078     0.98210
C458        C  0.51019010  0.70203461  0.08647796     1.04120
O459        O  0.50843366  0.66190006  0.14591369    -0.78470
C460        C  0.45357737  0.55428834  0.08030771     1.02420
Fe461      Fe  0.57850005  0.54069737  0.08095789     1.65780
Fe462      Fe  0.58254093  0.45506960  0.07145236     1.73250
Fe463      Fe  0.63208080  0.49381712  0.12601752     1.54420
O464        O  0.66469679  0.51139176  0.09049761    -0.82200
O465        O  0.58068323  0.43349647  0.12414514    -0.80510
O466        O  0.63207650  0.55744505  0.07867036    -0.84710
O467        O  0.57427756  0.55410908  0.13331513    -0.79570
O468        O  0.64480656  0.44515537  0.11624118    -0.81340
O469        O  0.53071802  0.46804065  0.07565070    -0.84080
C470        C  0.60045790  0.55585156  0.15236259     0.96680
C471        C  0.66189040  0.54238546  0.08160499     1.04120
O472        O  0.59641489  0.49677330  0.09218124    -1.13070
O473        O  0.58302825  0.47575896  0.02042932    -0.75500
O474        O  0.57946978  0.53133675  0.02816011    -0.78990
O475        O  0.62761810  0.54159473  0.14385228    -0.79680
C476        C  0.58125048  0.50591007  0.00752753     0.95580
O477        O  0.52569228  0.52406703  0.08300409    -0.77630
O478        O  0.63461279  0.44065165  0.06225147    -0.82830
C479        C  0.58520451  0.44676122  0.15475925     0.98210
C480        C  0.65489369  0.43670492  0.08722819     1.04120
O481        O  0.59681901  0.47667581  0.15887125    -0.78470
C482        C  0.51152689  0.49446572  0.07969876     1.02420
C483        C  0.47161178  0.48806570  0.08018707     0.00030
C484        C  0.44613031  0.51474837  0.07904802     0.00030
Fe485      Fe  0.34461544  0.45933742  0.07982285     1.65780
Fe486      Fe  0.33240315  0.54375759  0.07316259     1.73250
Fe487      Fe  0.29009374  0.49996284  0.13056058     1.54410
O488        O  0.27806930  0.44961854  0.12383915    -0.82200
O489        O  0.34474625  0.56548642  0.12078230    -0.80510
O490        O  0.29547792  0.43764444  0.07121629    -0.84710
O491        O  0.34220501  0.44121207  0.13346233    -0.79570
O492        O  0.25333179  0.51229642  0.09702101    -0.81340
O493        O  0.38593841  0.53078365  0.06614199    -0.84080
C494        C  0.33640078  0.45703802  0.16239541     0.96680
C495        C  0.27400548  0.43407416  0.09590768     1.04120
O496        O  0.32297539  0.50104710  0.09412225    -1.13070
O497        O  0.31850365  0.52406086  0.02603682    -0.75500
O498        O  0.34813029  0.47588263  0.02498680    -0.78990
O499        O  0.32870033  0.48829597  0.16257044    -0.79680
C500        C  0.33404353  0.50137394  0.00860219     0.95580
O501        O  0.39398333  0.47943011  0.08919119    -0.77630
O502        O  0.27999308  0.55933582  0.07925805    -0.82830
C503        C  0.32235649  0.56720606  0.14451555     0.98210
C504        C  0.25243871  0.54308702  0.08757121     1.04120
O505        O  0.29536733  0.54999896  0.14340712    -0.78470
C506        C  0.40654843  0.50740855  0.07777451     1.02420
Fe507      Fe  0.33507156  0.61764146  0.91584907     1.65780
Fe508      Fe  0.34425192  0.62382156  0.00190730     1.73250
Fe509      Fe  0.28810535  0.67075135  0.96281466     1.54410
O510        O  0.32319792  0.70404542  0.94407125    -0.82200
O511        O  0.29259123  0.62159847  0.02487137    -0.80510
O512        O  0.33585489  0.67122357  0.89817996    -0.84710
O513        O  0.28347803  0.61254483  0.90126287    -0.79570
O514        O  0.29872629  0.68330079  0.01180584    -0.81340
O515        O  0.34110566  0.56993356  0.98977289    -0.84080
C516        C  0.26331955  0.63807550  0.89909769     0.96680
C517        C  0.33201021  0.70116606  0.91294306     1.04120
O518        O  0.32261557  0.63551904  0.95975514    -1.13070
O519        O  0.39454147  0.62489918  0.98134440    -0.75500
O520        O  0.38737899  0.61951787  0.92567751    -0.78990
O521        O  0.26935102  0.66532384  0.91481582    -0.79680
C522        C  0.40741237  0.62225788  0.95134753     0.95580
O523        O  0.33439833  0.56459818  0.93334500    -0.77630
O524        O  0.35221626  0.67852653  0.01330172    -0.82830
C525        C  0.26181876  0.62514897  0.01229961     0.98210
C526        C  0.32616806  0.69807966  0.01568341     1.04120
O527        O  0.25673411  0.63471497  0.98162930    -0.78470
C528        C  0.33752179  0.55026410  0.96306470     1.02420
Fe529      Fe  0.33048748  0.53943120  0.83572068     1.65780
Fe530      Fe  0.34314583  0.45337501  0.83029122     1.73250
Fe531      Fe  0.27805729  0.48829650  0.79315036     1.54420
O532        O  0.25325039  0.53093152  0.80315819    -0.82200
O533        O  0.34878947  0.44544670  0.77558671    -0.80510
O534        O  0.27961919  0.55574714  0.84629418    -0.84710
O535        O  0.32488751  0.55581749  0.78216382    -0.79570
O536        O  0.25916823  0.46807165  0.83621496    -0.81340
O537        O  0.39157117  0.47549976  0.82919434    -0.84080
C538        C  0.31387803  0.54118981  0.75404882     0.96680
C539        C  0.25383135  0.55235001  0.82668793     1.04120
O540        O  0.31821780  0.49496793  0.82020116    -1.13070
O541        O  0.33979973  0.46435495  0.88270754    -0.75500
O542        O  0.33457684  0.52091750  0.88870104    -0.78990
O543        O  0.30043086  0.51176592  0.75328643    -0.79680
C544        C  0.33722899  0.49068764  0.90240581     0.95580
O545        O  0.38328455  0.53085322  0.82789590    -0.77630
O546        O  0.29561791  0.42499328  0.83533031    -0.82830
C547        C  0.32116338  0.44291659  0.75886302     0.98210
C548        C  0.26473225  0.43650766  0.83783727     1.04120
O549        O  0.29495034  0.44284839  0.77647265    -0.78470
C550        C  0.40393763  0.50532804  0.82908478     1.02420
C551        C  0.33679839  0.48323619  0.94241498     0.00030
C552        C  0.33661725  0.50943006  0.96897696     0.00030
Fe553      Fe  0.91485759  0.37559814  0.33054143     1.65780
Fe554      Fe  0.99996896  0.37725884  0.34159407     1.73250
Fe555      Fe  0.96307209  0.32362148  0.28647350     1.54420
O556        O  0.91541730  0.30491667  0.29212290    -0.82200
O557        O  0.02192044  0.38720917  0.29278181    -0.80510
O558        O  0.89883237  0.32464006  0.34231775    -0.84710
O559        O  0.89867198  0.36929154  0.27841139    -0.79570
O560        O  0.97761042  0.29407513  0.32581228    -0.81340
O561        O  0.98039133  0.43058218  0.34390261    -0.84080
C562        C  0.91406063  0.36213291  0.24991078     0.96680
C563        C  0.89949950  0.30085200  0.31967707     1.04120
O564        O  0.95941101  0.36012545  0.31931371    -1.13070
O565        O  0.98031289  0.36647192  0.39146772    -0.75500
O566        O  0.92698396  0.38301806  0.38334290    -0.78990
O567        O  0.94556325  0.35486394  0.24935366    -0.79680
C568        C  0.95105202  0.37417323  0.40400863     0.95580
O569        O  0.92975910  0.42575124  0.31883631    -0.77630
O570        O  0.02229363  0.32589175  0.33956475    -0.82830
C571        C  0.02716473  0.36318660  0.27089251     0.98210
C572        C  0.00850929  0.29630998  0.33362929     1.04120
O573        O  0.01238606  0.33470708  0.27339032    -0.78470
C574        C  0.95317229  0.44494066  0.33128222     1.02420
Fe575      Fe  0.07383879  0.46022845  0.33348270     1.65780
Fe576      Fe  0.07998296  0.54557980  0.33850692     1.73250
Fe577      Fe  0.12877281  0.50401683  0.28616876     1.54420
O578        O  0.14356560  0.45532962  0.29483737    -0.82200
O579        O  0.06642883  0.56315943  0.28874047    -0.80510
O580        O  0.12340135  0.44130218  0.34548484    -0.84710
O581        O  0.08027653  0.44197447  0.27964325    -0.79570
O582        O  0.16123385  0.51928550  0.32327845    -0.81340
O583        O  0.02866201  0.52838840  0.34570905    -0.84080
C584        C  0.08818564  0.45758607  0.25096020     0.96680
C585        C  0.14671830  0.43976785  0.32253096     1.04120
O586        O  0.09320851  0.50299299  0.31950798    -1.13070
O587        O  0.09387516  0.52790852  0.38660614    -0.75500
O588        O  0.06779351  0.47760080  0.38778350    -0.78990
O589        O  0.09517151  0.48891223  0.25068984    -0.79680
C590        C  0.07998670  0.50410882  0.40407328     0.95580
O591        O  0.02317307  0.47691158  0.32229734    -0.77630
O592        O  0.13101608  0.56624658  0.33345672    -0.82830
C593        C  0.08971447  0.56517734  0.26585086     0.98210
C594        C  0.16000532  0.55093165  0.32909767     1.04120
O595        O  0.11882709  0.55283709  0.27157959    -0.78470
C596        C  0.00936350  0.50454549  0.33354986     1.02420
Fe597      Fe  0.84017583  0.54025924  0.33393392     1.65780
Fe598      Fe  0.83251526  0.45419588  0.33836792     1.73250
Fe599      Fe  0.78651474  0.49921790  0.28564242     1.54420
O600        O  0.75399753  0.51446137  0.32259763    -0.82200
O601        O  0.83501260  0.43628300  0.28379273    -0.80510
O602        O  0.78755358  0.55924029  0.33633994    -0.84710
O603        O  0.84661710  0.55605506  0.28219960    -0.79570
O604        O  0.77253545  0.45001156  0.29040434    -0.81340
O605        O  0.88521413  0.46512643  0.33627406    -0.84080
C606        C  0.82140535  0.56001991  0.26217644     0.96680
C607        C  0.75754880  0.54508542  0.33255490     1.04120
O608        O  0.82081601  0.49792408  0.32036945    -1.13070
O609        O  0.83043574  0.47235400  0.39144662    -0.75500
O610        O  0.83795093  0.52794988  0.38595021    -0.78990
O611        O  0.79294526  0.54854484  0.27072602    -0.79680
C612        C  0.83388975  0.50210862  0.40562876     0.95580
O613        O  0.89139178  0.52110853  0.33160595    -0.77630
O614        O  0.77959711  0.44008002  0.34393106    -0.82830
C615        C  0.83130732  0.45264662  0.25453997     0.98210
C616        C  0.76110043  0.43795560  0.31724613     1.04120
O617        O  0.82316338  0.48385337  0.25374723    -0.78470
C618        C  0.90493184  0.49121601  0.33331786     1.02420
Fe619      Fe  0.91191909  0.61640942  0.33213827     1.65780
Fe620      Fe  0.99789691  0.62308220  0.33856480     1.73250
Fe621      Fe  0.95240959  0.67611809  0.29135463     1.54420
O622        O  0.90542735  0.66514619  0.27519883    -0.82200
O623        O  0.01245657  0.67353077  0.35084475    -0.80510
O624        O  0.90115832  0.61077475  0.27752197    -0.84710
O625        O  0.88700391  0.66681323  0.33490968    -0.79570
O626        O  0.97335857  0.64740491  0.25433286    -0.81340
O627        O  0.97908193  0.61812792  0.39075614    -0.84080
C628        C  0.90004394  0.69736641  0.33529507     0.96680
C629        C  0.89906854  0.63837371  0.25988175     1.04120
O630        O  0.95465200  0.63747133  0.32130136    -1.13070
O631        O  0.98807097  0.57149721  0.32839537    -0.75500
O632        O  0.93258325  0.56506741  0.33308865    -0.78990
O633        O  0.93178213  0.70156548  0.33113785    -0.79680
C634        C  0.96241341  0.55152604  0.33089377     0.95580
O635        O  0.92328162  0.62199591  0.38445862    -0.77630
O636        O  0.01728192  0.62833962  0.28660424    -0.82830
C637        C  0.01404909  0.69731645  0.32867431     0.98210
C638        C  0.00363655  0.63626382  0.25721521     1.04120
O639        O  0.99883246  0.69515028  0.30072282    -0.78470
C640        C  0.94924937  0.62086188  0.40454356     1.02420
C641        C  0.94478989  0.48471319  0.33212579     0.00030
C642        C  0.97000616  0.51161190  0.33192153     0.00030
Fe643      Fe  0.83832886  0.61886812  0.50003899     1.65780
Fe644      Fe  0.83026650  0.61993939  0.41486265     1.73250
Fe645      Fe  0.78187780  0.66875043  0.46139449     1.54410
O646        O  0.77412389  0.66112284  0.51180925    -0.82200
O647        O  0.83664386  0.67283105  0.39969865    -0.80510
O648        O  0.78800286  0.60812802  0.51954420    -0.84710
O649        O  0.83661169  0.67326838  0.51819210    -0.79570
O650        O  0.74756214  0.63255506  0.44704703    -0.81340
O651        O  0.88211492  0.61714262  0.42736844    -0.84080
C652        C  0.82968096  0.70214878  0.50233957     0.96680
C653        C  0.76647778  0.63253598  0.52294735     1.04120
O654        O  0.81738917  0.63466538  0.45875982    -1.13070
O655        O  0.82352683  0.56890728  0.42854995    -0.75500
O656        O  0.84142903  0.56493336  0.48208541    -0.78990
O657        O  0.81882093  0.70235842  0.47214199    -0.79680
C658        C  0.83245973  0.54996226  0.45366631     0.95580
O659        O  0.88908982  0.62740345  0.48207643    -0.77630
O660        O  0.77881715  0.61918688  0.40075451    -0.82830
C661        C  0.81110826  0.69352599  0.39970094     0.98210
C662        C  0.74988471  0.62350171  0.41572887     1.04120
O663        O  0.78386330  0.68383526  0.41272451    -0.78470
C664        C  0.90235660  0.62216579  0.45255512     1.02420
Fe665      Fe  0.83517678  0.53893619  0.57614113     1.65780
Fe666      Fe  0.83103019  0.45375357  0.58634008     1.73250
Fe667      Fe  0.77908084  0.50378587  0.62759998     1.54410
O668        O  0.79235117  0.55245620  0.63389362    -0.82200
O669        O  0.77961488  0.43803456  0.57572607    -0.80510
O670        O  0.84591879  0.55431372  0.62939920    -0.84710
O671        O  0.78267524  0.56089133  0.57386871    -0.79570
O672        O  0.80917704  0.48981439  0.66681436    -0.81340
O673        O  0.83688830  0.46583376  0.53310152    -0.84080
C674        C  0.75286459  0.54636181  0.57764333     0.96680
C675        C  0.81984614  0.55596989  0.64895142     1.04120
O676        O  0.81598853  0.49817398  0.59577416    -1.13070
O677        O  0.88190004  0.46704186  0.59572373    -0.75500
O678        O  0.88681295  0.51931990  0.57425823    -0.78990
O679        O  0.75082762  0.51552792  0.58648906    -0.79680
C680        C  0.90080395  0.49130277  0.58455098     0.95580
O681        O  0.82748706  0.52122354  0.52458236    -0.77630
O682        O  0.82662334  0.44182554  0.64049495    -0.82830
C683        C  0.75655152  0.43987915  0.59889612     0.98210
C684        C  0.81999532  0.45949405  0.66799467     1.04120
O685        O  0.76235239  0.45583680  0.62575727    -0.78470
C686        C  0.83256028  0.49112357  0.51206787     1.02420
Fe687      Fe  0.91258317  0.61826873  0.57475526     1.65780
Fe688      Fe  0.99779863  0.61983894  0.58690660     1.73250
Fe689      Fe  0.94887544  0.67198182  0.63044969     1.54410
O690        O  0.93382683  0.70208381  0.59168762    -0.82200
O691        O  0.01237748  0.62391044  0.63964591    -0.80510
O692        O  0.89024185  0.66960122  0.57497171    -0.84710
O693        O  0.89291353  0.60789373  0.62428664    -0.79570
O694        O  0.99673426  0.69125991  0.62723386    -0.81340
O695        O  0.98115218  0.56959852  0.59710202    -0.84080
C696        C  0.88912572  0.63175620  0.64636349     0.96680
C697        C  0.90378285  0.69937083  0.58049538     1.04120
O698        O  0.95338835  0.63641122  0.59657306    -1.13070
O699        O  0.98584768  0.61551421  0.53302307    -0.75500
O700        O  0.93154878  0.62760032  0.52474461    -0.78990
O701        O  0.89989266  0.66115456  0.64043587    -0.79680
C702        C  0.96100075  0.62176803  0.51197505     0.95580
O703        O  0.93089694  0.56540838  0.57210252    -0.77630
O704        O  0.01750635  0.67044235  0.57878499    -0.82830
C705        C  0.99615105  0.63064867  0.66771988     0.98210
C706        C  0.01686595  0.69353632  0.60234043     1.04120
O707        O  0.96505364  0.63957448  0.66783276    -0.78470
C708        C  0.95758724  0.55065360  0.58460384     1.02420
C709        C  0.93996346  0.48393201  0.58202995     0.00030
C710        C  0.96533202  0.51077012  0.58272641     0.00030
C711        C  0.94209759  0.62233756  0.44498784     0.00030
C712        C  0.96816059  0.62299137  0.47162491     0.00030
C713        C  0.83317787  0.50967847  0.44596244     0.00030
C714        C  0.83312382  0.48338113  0.47198494     0.00030
Fe715      Fe  0.07940927  0.61713674  0.50047921     1.65780
Fe716      Fe  0.07118650  0.62575427  0.41479123     1.73250
Fe717      Fe  0.12629823  0.67124141  0.45836523     1.54410
O718        O  0.09092863  0.70485443  0.47719878    -0.82200
O719        O  0.12324305  0.62245842  0.39478660    -0.80510
O720        O  0.07709471  0.66975928  0.52114828    -0.84710
O721        O  0.13151440  0.61044159  0.51411356    -0.79570
O722        O  0.12039828  0.68506319  0.40980202    -0.81340
O723        O  0.07208757  0.57217765  0.42493627    -0.84080
C724        C  0.15053766  0.63641825  0.51767217     0.96680
C725        C  0.08080650  0.70043433  0.50800785     1.04120
O726        O  0.09127807  0.63705474  0.45786640    -1.13070
O727        O  0.02018094  0.62827964  0.43404288    -0.75500
O728        O  0.02764508  0.62016637  0.48936137    -0.78990
O729        O  0.14039035  0.66454842  0.50706669    -0.79680
C730        C  0.00744174  0.62386666  0.46396801     0.95580
O731        O  0.08096627  0.56562952  0.48043957    -0.77630
O732        O  0.06650676  0.67945324  0.40206791    -0.82830
C733        C  0.15366010  0.62635096  0.40799205     0.98210
C734        C  0.09331222  0.69774482  0.39997809     1.04120
O735        O  0.15780110  0.63445438  0.43938977    -0.78470
C736        C  0.07654968  0.55203423  0.45073362     1.02420
Fe737      Fe  0.07581925  0.54372035  0.57423601     1.65780
Fe738      Fe  0.07090577  0.45790489  0.58354864     1.73250
Fe739      Fe  0.12461101  0.50414035  0.62813871     1.54420
O740        O  0.13811244  0.55300221  0.62080463    -0.82200
O741        O  0.06684717  0.44452593  0.63691795    -0.80510
O742        O  0.12808206  0.55809861  0.56661757    -0.84710
O743        O  0.07431035  0.56512941  0.62687002    -0.79570
O744        O  0.15523839  0.48770594  0.59005433    -0.81340
O745        O  0.01896905  0.47499356  0.58563406    -0.84080
C746        C  0.07950396  0.55242639  0.65760998     0.96680
C747        C  0.14794564  0.56215972  0.59204592     1.04120
O748        O  0.08874699  0.50188626  0.59493292    -1.13070
O749        O  0.07286255  0.46746030  0.53049198    -0.75500
O750        O  0.07649969  0.52320492  0.52306474    -0.78990
O751        O  0.08960876  0.52170750  0.66176796    -0.79680
C752        C  0.07482517  0.49304900  0.51005048     0.95580
O753        O  0.02411108  0.53078994  0.57740600    -0.77630
O754        O  0.12329830  0.44076484  0.57984057    -0.82830
C755        C  0.09364199  0.44300280  0.65536987     0.98210
C756        C  0.15238702  0.45678564  0.58070705     1.04120
O757        O  0.12052025  0.45541966  0.64384904    -0.78470
C758        C  0.00498331  0.50448110  0.58173741     1.02420
C759        C  0.07708606  0.51166794  0.44383521     0.00030
C760        C  0.07563615  0.48554420  0.47012320     0.00030
Fe761      Fe  0.07634022  0.38273204  0.41414704     1.65780
Fe762      Fe  0.07601596  0.37204925  0.49934614     1.73250
Fe763      Fe  0.13345065  0.33310951  0.45174985     1.54420
O764        O  0.12309435  0.31895053  0.40263876    -0.82200
O765        O  0.12381915  0.38718830  0.51801708    -0.80510
O766        O  0.06872507  0.33149784  0.39572779    -0.84710
O767        O  0.12801855  0.38274669  0.39121719    -0.79570
O768        O  0.10695743  0.29273551  0.46858860    -0.81340
O769        O  0.06683987  0.42477987  0.48610111    -0.84080
C770        C  0.15774971  0.38014214  0.40579156     0.96680
C771        C  0.09406905  0.31083567  0.39177206     1.04120
O772        O  0.09424110  0.36249168  0.45531980    -1.13070
O773        O  0.02770938  0.35709324  0.48357089    -0.75500
O774        O  0.02340413  0.38441604  0.43418866    -0.78990
O775        O  0.15933798  0.37521948  0.43743095    -0.79680
C776        C  0.00881793  0.37063025  0.46075701     0.95580
O777        O  0.08424250  0.43369660  0.43261718    -0.77630
O778        O  0.08490952  0.31967033  0.51465125    -0.82830
C779        C  0.14913385  0.36676778  0.51749035     0.98210
C780        C  0.09485275  0.29225753  0.49868436     1.04120
O781        O  0.14942812  0.34038832  0.49945299    -0.78470
C782        C  0.07541099  0.44587508  0.46195937     1.02420
Fe783      Fe  0.83685375  0.37250071  0.50068677     1.65780
Fe784      Fe  0.83347623  0.37744501  0.41477828     1.73250
Fe785      Fe  0.78345793  0.32540142  0.45744217     1.54410
O786        O  0.79045006  0.30833867  0.50618085    -0.82200
O787        O  0.78267516  0.38798811  0.40087863    -0.80510
O788        O  0.84421588  0.32020628  0.51494372    -0.84710
O789        O  0.78479934  0.37287612  0.52060180    -0.79570
O790        O  0.81844531  0.29225961  0.43976582    -0.81340
O791        O  0.83739831  0.42969434  0.43431334    -0.84080
C792        C  0.75488017  0.36980166  0.50638638     0.96680
C793        C  0.81874582  0.30007615  0.51852113     1.04120
O794        O  0.81884663  0.35922066  0.45765512    -1.13070
O795        O  0.88421140  0.36822095  0.42524079    -0.75500
O796        O  0.88915594  0.37499767  0.48110794    -0.78990
O797        O  0.75174906  0.36162519  0.47516972    -0.79680
C798        C  0.90335189  0.37166263  0.45127599     0.95580
O799        O  0.82990648  0.42382283  0.48987738    -0.77630
O800        O  0.83134623  0.32539613  0.39434705    -0.82830
C801        C  0.76165631  0.36360533  0.39693838     0.98210
C802        C  0.82777337  0.29556173  0.40888628     1.04120
O803        O  0.76790198  0.33450208  0.40881434    -0.78470
C804        C  0.83339934  0.44352648  0.46414917     1.02420
Fe805      Fe  0.91154265  0.36965245  0.57285462     1.65780
Fe806      Fe  0.99713801  0.37884595  0.58195355     1.73250
Fe807      Fe  0.95265878  0.32667258  0.63181800     1.54420
O808        O  0.93128712  0.36449675  0.65977797    -0.82200
O809        O  0.01746094  0.32636833  0.58211351    -0.80510
O810        O  0.88809034  0.37401651  0.62340633    -0.84710
O811        O  0.89905609  0.31563765  0.56935983    -0.79570
O812        O  0.99945343  0.33499225  0.65059074    -0.81340
O813        O  0.98769664  0.37558625  0.52897001    -0.84080
C814        C  0.89557743  0.29688769  0.59610089     0.96680
C815        C  0.90030626  0.37259000  0.65433520     1.04120
O816        O  0.95403926  0.35911077  0.59458381    -1.13070
O817        O  0.97728752  0.43048673  0.58261423    -0.75500
O818        O  0.92181482  0.42347412  0.57435910    -0.78990
O819        O  0.90506132  0.30856728  0.62413206    -0.79680
C820        C  0.94736536  0.44376443  0.57931186     0.95580
O821        O  0.93267544  0.36627299  0.52212959    -0.77630
O822        O  0.01175574  0.38678970  0.63337949    -0.82830
C823        C  0.00474717  0.29606196  0.58851244     0.98210
C824        C  0.01383112  0.36293949  0.65534196     1.04120
O825        O  0.97463123  0.29186384  0.60031888    -0.78470
C826        C  0.96230739  0.37088548  0.50890994     1.02420
C827        C  0.94301509  0.37235550  0.44359354     0.00030
C828        C  0.96933743  0.37122434  0.46905350     0.00030
Fe829      Fe  0.06931505  0.11979676  0.99674682     1.65780
Fe830      Fe  0.08006754  0.11233704  0.91241272     1.73250
Fe831      Fe  0.12514262  0.16708084  0.95532253     1.54420
O832        O  0.08876924  0.20150878  0.96732796    -0.82200
O833        O  0.13076055  0.11453197  0.89713313    -0.80510
O834        O  0.07217001  0.17368064  0.01418960    -0.84710
O835        O  0.11845373  0.10890431  0.01840360    -0.79570
O836        O  0.11999621  0.18027594  0.90522815    -0.81340
O837        O  0.09429449  0.06635954  0.93296903    -0.84080
C838        C  0.14035582  0.13306909  0.02053834     0.96680
C839        C  0.07974532  0.20208632  0.99827512     1.04120
O840        O  0.09041827  0.13321912  0.95474697    -1.13070
O841        O  0.02771870  0.10638163  0.92514906    -0.75500
O842        O  0.02105818  0.13078000  0.97585988    -0.78990
O843        O  0.13514666  0.16064815  0.00538675    -0.79680
C844        C  0.00802907  0.11917969  0.94828147     0.95580
O845        O  0.06442296  0.06544846  0.98071394    -0.77630
O846        O  0.06912310  0.16099191  0.89081464    -0.82830
C847        C  0.15892267  0.11958785  0.91297232     0.98210
C848        C  0.09229671  0.18401593  0.88943766     1.04120
O849        O  0.15976377  0.13006986  0.94355349    -0.78470
C850        C  0.07825852  0.04922686  0.95506006     1.02420
Fe851      Fe  0.07359982  0.87952445  0.91977642     1.65780
Fe852      Fe  0.07830882  0.87382436  0.00546402     1.73250
Fe853      Fe  0.13151316  0.83092649  0.95754808     1.54420
O854        O  0.11970399  0.82172125  0.90826958    -0.82200
O855        O  0.12997040  0.88410156  0.02197896    -0.80510
O856        O  0.06584958  0.82559358  0.90484098    -0.84710
O857        O  0.12469615  0.88209256  0.89766439    -0.79570
O858        O  0.10175237  0.79207221  0.97352734    -0.81340
O859        O  0.07239757  0.92575920  0.99201383    -0.84080
C860        C  0.15468310  0.87826787  0.91142086     0.96680
C861        C  0.09265568  0.80672054  0.90299626     1.04120
O862        O  0.09354331  0.86214709  0.96146633    -1.13070
O863        O  0.02768106  0.86401218  0.99262278    -0.75500
O864        O  0.02218260  0.88091095  0.93907127    -0.78990
O865        O  0.15758182  0.87281889  0.94312345    -0.79680
C866        C  0.00840754  0.87236425  0.96763512     0.95580
O867        O  0.07970518  0.93162628  0.93575455    -0.77630
O868        O  0.08153611  0.82178058  0.01849103    -0.82830
C869        C  0.15373429  0.86135722  0.02233886     0.98210
C870        C  0.08957505  0.79338830  0.00364488     1.04120
O871        O  0.14968250  0.83397683  0.00625140    -0.78470
C872        C  0.07590937  0.94519767  0.96558339     1.02420
Fe873      Fe  0.06940641  0.95718320  0.83603260     1.65780
Fe874      Fe  0.07042896  0.04470984  0.83379537     1.73250
Fe875      Fe  0.13617561  0.00048795  0.81090789     1.54410
O876        O  0.15006636  0.97002937  0.84970115    -0.82200
O877        O  0.06786328  0.05021410  0.77993211    -0.80510
O878        O  0.11713105  0.92837290  0.83696027    -0.84710
O879        O  0.07155781  0.94747529  0.78184612    -0.79570
O880        O  0.14757432  0.03546398  0.84651057    -0.81340
O881        O  0.02142140  0.02801319  0.83755272    -0.84080
C882        C  0.09885609  0.95068411  0.76316292     0.96680
C883        C  0.14736370  0.93958803  0.84151858     1.04120
O884        O  0.09018255  0.00047263  0.82530565    -1.13070
O885        O  0.07447593  0.03199347  0.88663087    -0.75500
O886        O  0.07049095  0.97412875  0.89056347    -0.78990
O887        O  0.12635233  0.96267465  0.77559262    -0.79680
C888        C  0.07318241  0.00431408  0.90543412     0.95580
O889        O  0.01697853  0.97335559  0.83092361    -0.77630
O890        O  0.11547584  0.07513069  0.82886509    -0.82830
C891        C  0.09415993  0.04586168  0.76029329     0.98210
C892        C  0.14537648  0.06449061  0.83441801     1.04120
O893        O  0.12243636  0.03325392  0.77123700    -0.78470
C894        C  0.00236062  0.00234340  0.83434710     1.02420
C895        C  0.07494863  0.01036403  0.94623694     0.00030
C896        C  0.07661325  0.98470495  0.97228172     0.00030
Fe897      Fe  0.07981553  0.95061505  0.07723682     1.65780
Fe898      Fe  0.07211674  0.03675182  0.08063164     1.73250
Fe899      Fe  0.12098660  0.99414893  0.13571842     1.54410
O900        O  0.11085996  0.94636941  0.15160880    -0.82200
O901        O  0.12264801  0.05518438  0.07321307    -0.80510
O902        O  0.06427367  0.92987907  0.12466472    -0.84710
O903        O  0.13095202  0.93138811  0.08484135    -0.79570
O904        O  0.08157866  0.01256293  0.16370194    -0.81340
O905        O  0.06868051  0.01925395  0.02720687    -0.84080
C906        C  0.15878818  0.94589176  0.09481120     0.96680
C907        C  0.08397377  0.92919232  0.15058842     1.04120
O908        O  0.09090464  0.99375876  0.09717457    -1.13070
O909        O  0.02181935  0.01937145  0.08968668    -0.75500
O910        O  0.02787766  0.96624518  0.06941920    -0.78990
O911        O  0.15926020  0.97573331  0.10717488    -0.79680
C912        C  0.00854803  0.99094236  0.08031095     0.95580
O913        O  0.09531276  0.96941445  0.02956395    -0.77630
O914        O  0.07351546  0.05860731  0.13178845    -0.82830
C915        C  0.14364453  0.05689603  0.09844129     0.98210
C916        C  0.07659593  0.04427427  0.16144109     1.04120
O917        O  0.13846230  0.04135673  0.12604240    -0.78470
C918        C  0.08086088  0.99261646  0.01162650     1.02420
Fe919      Fe  0.83485786  0.87726110  0.91227596     1.65780
Fe920      Fe  0.83591477  0.88106774  0.99923872     1.73250
Fe921      Fe  0.78412818  0.82897887  0.95581785     1.54420
O922        O  0.74982633  0.86427328  0.93820511    -0.82200
O923        O  0.83705851  0.82830533  0.01753554    -0.80510
O924        O  0.78395589  0.88011730  0.89427111    -0.84710
O925        O  0.84053968  0.82574597  0.89480849    -0.79570
O926        O  0.77160248  0.83450118  0.00529896    -0.81340
O927        O  0.88897435  0.87676798  0.98466322    -0.84080
C928        C  0.81535769  0.80530510  0.89299476     0.96680
C929        C  0.75415712  0.87553859  0.90772057     1.04120
O930        O  0.81848313  0.86394488  0.95587284    -1.13070
O931        O  0.83455767  0.93414929  0.98281871    -0.75500
O932        O  0.83269453  0.92829251  0.92648948    -0.78990
O933        O  0.78789501  0.81321500  0.90685918    -0.79680
C934        C  0.83296660  0.94783718  0.95281784     0.95580
O935        O  0.88436091  0.87532440  0.92884762    -0.77630
O936        O  0.78439100  0.88746207  0.01691693    -0.82830
C937        C  0.83203520  0.79924260  0.00202768     0.98210
C938        C  0.76371626  0.86224794  0.01861816     1.04120
O939        O  0.82226412  0.79786204  0.97125886    -0.78470
C940        C  0.90340064  0.87521476  0.95514286     1.02420
Fe941      Fe  0.82475403  0.95248380  0.83870497     1.65780
Fe942      Fe  0.83231339  0.03778357  0.83753186     1.73250
Fe943      Fe  0.77992698  0.99777201  0.78549009     1.54410
O944        O  0.78608521  0.94891472  0.76844229    -0.82200
O945        O  0.77915190  0.05178353  0.85016125    -0.80510
O946        O  0.83674720  0.93439571  0.78831696    -0.84710
O947        O  0.77300720  0.93491662  0.83318229    -0.79570
O948        O  0.81652159  0.01293140  0.75356696    -0.81340
O949        O  0.83889105  0.01998996  0.88964746    -0.84080
C950        C  0.74476105  0.95088059  0.82694475     0.96680
C951        C  0.81435507  0.93410525  0.76436748     1.04120
O952        O  0.81418762  0.99551711  0.82016630    -1.13070
O953        O  0.88378128  0.02089922  0.82743601    -0.75500
O954        O  0.87696898  0.96702203  0.84490736    -0.78990
O955        O  0.74468480  0.98227840  0.82015838    -0.79680
C956        C  0.89696013  0.99177131  0.83597828     0.95580
O957        O  0.81210102  0.97060494  0.88803138    -0.77630
O958        O  0.83003388  0.05879333  0.78506076    -0.82830
C959        C  0.75759184  0.05192025  0.82545875     0.98210
C960        C  0.82495903  0.04395735  0.75553564     1.04120
O961        O  0.77000774  0.04703367  0.79681420    -0.78470
C962        C  0.82684266  0.99397506  0.90567218     1.02420
Fe963      Fe  0.91126360  0.87042631  0.83390403     1.65780
Fe964      Fe  0.99658195  0.88204042  0.84282315     1.73250
Fe965      Fe  0.96268936  0.82772295  0.78688333     1.54410
O966        O  0.91566878  0.80895070  0.78718153    -0.82200
O967        O  0.01710019  0.89165183  0.79244049    -0.80510
O968        O  0.90007146  0.81587762  0.83922285    -0.84710
O969        O  0.89683357  0.87056890  0.78026705    -0.79570
O970        O  0.97488216  0.80025675  0.82820898    -0.81340
O971        O  0.97396668  0.93222420  0.84347030    -0.84080
C972        C  0.91319471  0.86723673  0.75134174     0.96680
C973        C  0.90193345  0.79662483  0.81265884     1.04120
O974        O  0.95679243  0.86256161  0.82073722    -1.13070
O975        O  0.98029908  0.87444385  0.89459926    -0.75500
O976        O  0.92512963  0.87137324  0.88656490    -0.78990
O977        O  0.94507782  0.86006109  0.75013469    -0.79680
C978        C  0.95047257  0.87278155  0.90760937     0.95580
O979        O  0.91966651  0.92368710  0.82973522    -0.77630
O980        O  0.01923831  0.83180843  0.84362257    -0.82830
C981        C  0.02326850  0.86697053  0.77157017     0.98210
C982        C  0.00536045  0.80235684  0.83750736     1.04120
O983        O  0.01256600  0.83774024  0.77819948    -0.78470
C984        C  0.94433950  0.94441897  0.83606506     1.02420
C985        C  0.96263063  0.00973575  0.83403304     0.00030
C986        C  0.93649713  0.98395839  0.83529267     0.00030
C987        C  0.96909703  0.87354796  0.97479917     0.00030
C988        C  0.94309128  0.87349338  0.94812215     0.00030
C989        C  0.83169480  0.98744742  0.94526930     0.00030
C990        C  0.83476358  0.01407956  0.97059914     0.00030
Fe991      Fe  0.84206724  0.11609869  0.91253771     1.65780
Fe992      Fe  0.83618806  0.12910110  0.99778305     1.73250
Fe993      Fe  0.78689937  0.16989925  0.94496065     1.54410
O994        O  0.80080513  0.17379204  0.89574055    -0.82200
O995        O  0.78467727  0.12180979  0.01376148    -0.80510
O996        O  0.85407655  0.16877399  0.89519585    -0.84710
O997        O  0.79145613  0.11453737  0.88828596    -0.79570
O998        O  0.81829958  0.20865762  0.95900962    -0.81340
O999        O  0.84055845  0.07543280  0.98685404    -0.84080
C1000       C  0.76183470  0.12045680  0.90222092     0.96680
C1001       C  0.82803178  0.18824126  0.89123419     1.04120
O1002       O  0.82252485  0.13754933  0.95259439    -1.13070
O1003       O  0.88726269  0.13675955  0.98560739    -0.75500
O1004       O  0.89192681  0.11268151  0.93437845    -0.78990
O1005       O  0.75997988  0.12803214  0.93354981    -0.79680
C1006       C  0.90582325  0.12430407  0.96172169     0.95580
O1007       O  0.83207127  0.06570683  0.93145437    -0.77630
O1008       O  0.83287036  0.18289569  0.00843096    -0.82830
C1009       C  0.76248993  0.14585745  0.01188572     0.98210
C1010       C  0.82796682  0.21001303  0.98991467     1.04120
O1011       O  0.76697988  0.17089372  0.99249207    -0.78470
C1012       C  0.83584128  0.05390650  0.96195362     1.02420
Fe1013     Fe  0.91097144  0.11700181  0.83800644     1.65780
Fe1014     Fe  0.99644937  0.11920120  0.82777422     1.73250
Fe1015     Fe  0.94903055  0.16629223  0.77960903     1.54410
O1016       O  0.89953254  0.15731121  0.77029042    -0.82200
O1017       O  0.01316268  0.17184584  0.83291133    -0.80510
O1018       O  0.89126472  0.10489324  0.78780411    -0.84710
O1019       O  0.89014957  0.16874426  0.83423583    -0.79570
O1020       O  0.96516439  0.13160283  0.74393656    -0.81340
O1021       O  0.98568448  0.11845853  0.88064287    -0.84080
C1022       C  0.90510853  0.19711021  0.82588397     0.96680
C1023       C  0.88828267  0.12809705  0.76471774     1.04120
O1024       O  0.95215102  0.13274149  0.81538368    -1.13070
O1025       O  0.98043491  0.06841091  0.82200001    -0.75500
O1026       O  0.92802749  0.06431659  0.84269953    -0.78990
O1027       O  0.93626885  0.19701379  0.81860672    -0.79680
C1028       C  0.95569551  0.04962631  0.83248360     0.95580
O1029       O  0.93056899  0.12735669  0.88883771    -0.77630
O1030       O  0.01069133  0.11739981  0.77568322    -0.82830
C1031       C  0.01251725  0.19238228  0.80722969     0.98210
C1032       C  0.99603795  0.12148446  0.74651164     1.04120
O1033       O  0.99690515  0.18349899  0.78107872    -0.78470
C1034       C  0.96063383  0.12265088  0.90144369     1.02420
C1035       C  0.94451755  0.12183155  0.96848448     0.00030
C1036       C  0.96914276  0.12166095  0.94118286     0.00030
Fe1037     Fe  0.91331959  0.11889779  0.08062991     1.65780
Fe1038     Fe  0.99929999  0.11709631  0.07330155     1.73250
Fe1039     Fe  0.96035199  0.17657169  0.12127919     1.54420
O1040       O  0.91581239  0.19748042  0.10807683    -0.82200
O1041       O  0.01697135  0.10932659  0.12454714    -0.80510
O1042       O  0.89478476  0.16733538  0.06491842    -0.84710
O1043       O  0.89482124  0.12687098  0.13180098    -0.79570
O1044       O  0.98199021  0.20044006  0.08094930    -0.81340
O1045       O  0.97946615  0.06467959  0.07082093    -0.84080
C1046       C  0.90832689  0.13779438  0.15983970     0.96680
C1047       C  0.89694493  0.19492291  0.08236555     1.04120
O1048       O  0.95739451  0.13664684  0.09221242    -1.13070
O1049       O  0.98124462  0.12611919  0.02205891    -0.75500
O1050       O  0.92741021  0.10981853  0.02820727    -0.78990
O1051       O  0.93700833  0.15260126  0.16071243    -0.79680
C1052       C  0.95225682  0.11882864  0.00836546     0.95580
O1053       O  0.92925189  0.07006479  0.09615264    -0.77630
O1054       O  0.02576421  0.16623884  0.07518075    -0.82830
C1055       C  0.01944782  0.13393600  0.14649482     0.98210
C1056       C  0.01379016  0.19667243  0.07998126     1.04120
O1057       O  0.00621891  0.16289977  0.14133844    -0.78470
C1058       C  0.95258920  0.05061553  0.08381542     1.02420
Fe1059     Fe  0.91286237  0.88022205  0.07731703     1.65780
Fe1060     Fe  0.99756480  0.87527214  0.09060464     1.73250
Fe1061     Fe  0.94643497  0.82593848  0.13308464     1.54410
O1062       O  0.89644886  0.83698093  0.14125087    -0.82200
O1063       O  0.01227913  0.82348906  0.08155473    -0.80510
O1064       O  0.89187980  0.89094626  0.12722011    -0.84710
O1065       O  0.89114873  0.82912189  0.07651719    -0.79570
O1066       O  0.95986429  0.85799569  0.17094490    -0.81340
O1067       O  0.98696788  0.88033521  0.03620496    -0.84080
C1068       C  0.90539671  0.79948806  0.08152071     0.96680
C1069       C  0.88646512  0.86659161  0.14854429     1.04120
O1070       O  0.95242285  0.86196237  0.10019833    -1.13070
O1071       O  0.98511562  0.92670337  0.09833681    -0.75500
O1072       O  0.93345435  0.93175840  0.07503818    -0.78990
O1073       O  0.93548492  0.79710911  0.09232209    -0.79680
C1074       C  0.96135784  0.94554923  0.08589479     0.95580
O1075       O  0.93221159  0.87027027  0.02748212    -0.77630
O1076       O  0.00951694  0.87072979  0.14548231    -0.82830
C1077       C  0.01139098  0.80125539  0.10552085     0.98210
C1078       C  0.99118204  0.86503634  0.17287307     1.04120
O1079       O  0.99470269  0.80719441  0.13214380    -0.78470
C1080       C  0.96194306  0.87499322  0.01502157     1.02420
Fe1081     Fe  0.83781439  0.96261245  0.07914082     1.65780
Fe1082     Fe  0.83817937  0.04853585  0.07776352     1.73250
Fe1083     Fe  0.78135456  0.00895332  0.12303467     1.54420
O1084       O  0.76308519  0.96309988  0.11294831    -0.82200
O1085       O  0.84709971  0.06301595  0.12978143    -0.80510
O1086       O  0.78716550  0.94611903  0.06518128    -0.84710
O1087       O  0.83061918  0.94492409  0.13245909    -0.79570
O1088       O  0.75792259  0.02673233  0.08092629    -0.81340
O1089       O  0.88755796  0.03033699  0.07292294    -0.84080
C1090       C  0.81971739  0.95884618  0.16109063     0.96680
C1091       C  0.76126679  0.94766287  0.08523639     1.04120
O1092       O  0.82098362  0.00602668  0.09434933    -1.13070
O1093       O  0.82742955  0.03360619  0.02853796    -0.75500
O1094       O  0.84410726  0.97951692  0.02568013    -0.78990
O1095       O  0.80685579  0.98863584  0.16249132    -0.79680
C1096       C  0.83537711  0.00768498  0.01039062     0.95580
O1097       O  0.88999865  0.97669323  0.09061207    -0.77630
O1098       O  0.79054062  0.07210676  0.07772215    -0.82830
C1099       C  0.82156713  0.06561509  0.15030601     0.98210
C1100       C  0.76111098  0.05849154  0.07783360     1.04120
O1101       O  0.79246650  0.05647539  0.14059416    -0.78470
C1102       C  0.90528901  0.00465304  0.08226972     1.02420
C1103       C  0.96950542  0.98441148  0.08290578     0.00030
C1104       C  0.94458719  0.01099894  0.08331693     0.00030
C1105       C  0.12778188  0.88072163  0.60424859     0.01760
C1106       C  0.13069757  0.85145086  0.58197475     0.01760
C1107       C  0.10879394  0.82307469  0.58659265     0.01760
C1108       C  0.08577113  0.82269943  0.61501635     0.01760
C1109       C  0.08427105  0.85072056  0.63850266     0.01760
C1110       C  0.10417889  0.88074476  0.63230908     0.01760
C1111       C  0.78647439  0.11018401  0.59933476     0.01760
C1112       C  0.78636737  0.13794138  0.57550519     0.01760
C1113       C  0.81189501  0.16392328  0.57746898     0.01760
C1114       C  0.83804970  0.16159036  0.60281008     0.01760
C1115       C  0.83752880  0.13466147  0.62712443     0.01760
C1116       C  0.81210720  0.10859154  0.62486951     0.01760
C1117       C  0.60169466  0.88851670  0.12377032     0.01760
C1118       C  0.57703392  0.86129928  0.12684688     0.01760
C1119       C  0.57652420  0.83386893  0.10260388     0.01760
C1120       C  0.60274508  0.83217667  0.07727184     0.01760
C1121       C  0.63031224  0.85547793  0.07815731     0.01760
C1122       C  0.62935728  0.88478486  0.09994195     0.01760
C1123       C  0.78629644  0.64693805  0.07609861     0.01760
C1124       C  0.78549897  0.62182870  0.10292291     0.01760
C1125       C  0.81008287  0.62402628  0.12989215     0.01760
C1126       C  0.83824694  0.64678442  0.12663519     0.01760
C1127       C  0.83787963  0.67190717  0.10052363     0.01760
C1128       C  0.81207382  0.67215196  0.07504079     0.01760
C1129       C  0.13430228  0.12312207  0.60752656     0.01760
C1130       C  0.13223468  0.14564851  0.57875481     0.01760
C1131       C  0.10312607  0.16675246  0.57462163     0.01760
C1132       C  0.07668724  0.16631169  0.59975775     0.01760
C1133       C  0.07639792  0.14010542  0.62532436     0.01760
C1134       C  0.10513222  0.11759294  0.62915107     0.01760
C1135       C  0.78835865  0.35676407  0.07242549     0.01760
C1136       C  0.78913568  0.38132338  0.09960627     0.01760
C1137       C  0.81429689  0.37866154  0.12617866     0.01760
C1138       C  0.83339095  0.34720169  0.12838831     0.01760
C1139       C  0.83370082  0.32386403  0.10025157     0.01760
C1140       C  0.81171943  0.32944950  0.07199417     0.01760
C1141       C  0.13517080  0.64835466  0.08510462     0.01760
C1142       C  0.13411400  0.62355330  0.11182922     0.01760
C1143       C  0.10547898  0.62001437  0.13377675     0.01760
C1144       C  0.07904375  0.64486415  0.13146710     0.01760
C1145       C  0.07984457  0.67041250  0.10575955     0.01760
C1146       C  0.10775272  0.67172087  0.08214844     0.01760
C1147       C  0.13708643  0.33884257  0.83141725     0.01760
C1148       C  0.13893987  0.36731918  0.80846168     0.01760
C1149       C  0.11348256  0.37191456  0.78280518     0.01760
C1150       C  0.08765789  0.34663504  0.77968722     0.01760
C1151       C  0.08333878  0.32100073  0.80484439     0.01760
C1152       C  0.10949656  0.31574661  0.82932863     0.01760
C1153       C  0.60225097  0.11434696  0.78938176     0.01760
C1154       C  0.58095840  0.14390309  0.78477129     0.01760
C1155       C  0.58448025  0.17219397  0.80747018     0.01760
C1156       C  0.61407804  0.17469861  0.82843569     0.01760
C1157       C  0.63450117  0.14452926  0.83355862     0.01760
C1158       C  0.62709180  0.11252651  0.81655400     0.01760
C1159       C  0.13519021  0.65456237  0.83155981     0.01760
C1160       C  0.13590136  0.63261414  0.80213950     0.01760
C1161       C  0.11002897  0.63516555  0.77708203     0.01760
C1162       C  0.08373218  0.65984399  0.78125495     0.01760
C1163       C  0.08571487  0.68399095  0.80843360     0.01760
C1164       C  0.10833444  0.67881273  0.83653847     0.01760
C1165       C  0.29524176  0.13329295  0.77831523     0.01760
C1166       C  0.32121041  0.15842581  0.77979883     0.01760
C1167       C  0.31935000  0.18464241  0.80505228     0.01760
C1168       C  0.29516160  0.18234849  0.83238644     0.01760
C1169       C  0.26650406  0.16096130  0.82658819     0.01760
C1170       C  0.26511208  0.13856821  0.79759859     0.01760
C1171       C  0.31501899  0.88095194  0.12812272     0.01760
C1172       C  0.29123664  0.88474546  0.10116744     0.01760
C1173       C  0.29189811  0.86161784  0.07219520     0.01760
C1174       C  0.31616897  0.83395436  0.07083968     0.01760
C1175       C  0.33546265  0.82817757  0.10113034     0.01760
C1176       C  0.33864845  0.85361971  0.12682614     0.01760
C1177       C  0.61830765  0.12830174  0.13896593     0.01760
C1178       C  0.59312781  0.15415316  0.14319089     0.01760
C1179       C  0.58946341  0.18149771  0.11958235     0.01760
C1180       C  0.61542380  0.18629727  0.09484719     0.01760
C1181       C  0.64037739  0.16070935  0.08982761     0.01760
C1182       C  0.64193870  0.13221354  0.11240612     0.01760
C1183       C  0.30735765  0.67514607  0.58095815     0.01760
C1184       C  0.32605646  0.67792674  0.61236451     0.01760
C1185       C  0.32731331  0.64929072  0.63541927     0.01760
C1186       C  0.30581014  0.62038131  0.62997985     0.01760
C1187       C  0.28087793  0.62196629  0.60403496     0.01760
C1188       C  0.28212475  0.64858295  0.57881484     0.01760
C1189       C  0.62607898  0.35445144  0.57878660     0.01760
C1190       C  0.60092192  0.32789027  0.57777983     0.01760
C1191       C  0.57572988  0.32607402  0.60407250     0.01760
C1192       C  0.57320079  0.35195173  0.62886548     0.01760
C1193       C  0.59871922  0.37761504  0.63056348     0.01760
C1194       C  0.62388349  0.38046948  0.60449905     0.01760
C1195       C  0.59237787  0.68362728  0.29951758     0.01760
C1196       C  0.60987950  0.67755968  0.33087040     0.01760
C1197       C  0.63401489  0.65028580  0.33233266     0.01760
C1198       C  0.63825569  0.62738469  0.30416697     0.01760
C1199       C  0.61763982  0.63188391  0.27493877     0.01760
C1200       C  0.59292321  0.65849124  0.27364445     0.01760
C1201       C  0.13474218  0.12435180  0.30751944     0.01760
C1202       C  0.12976809  0.14869017  0.33460779     0.01760
C1203       C  0.10639349  0.17651525  0.32954613     0.01760
C1204       C  0.08503326  0.17701849  0.29999877     0.01760
C1205       C  0.08915665  0.15188254  0.27421652     0.01760
C1206       C  0.11220078  0.12399636  0.27903236     0.01760
C1207       C  0.78675367  0.11659220  0.31334444     0.01760
C1208       C  0.78815161  0.13977569  0.34160838     0.01760
C1209       C  0.81138758  0.16771670  0.33943528     0.01760
C1210       C  0.83772271  0.16789153  0.31436360     0.01760
C1211       C  0.83954597  0.14156355  0.28978831     0.01760
C1212       C  0.81284306  0.11701153  0.28792762     0.01760
C1213       C  0.13091829  0.87683851  0.30397359     0.01760
C1214       C  0.10417613  0.87097193  0.28031326     0.01760
C1215       C  0.07800355  0.84733905  0.28786108     0.01760
C1216       C  0.08368826  0.82326795  0.31393593     0.01760
C1217       C  0.11046967  0.82770110  0.33834650     0.01760
C1218       C  0.13400223  0.85511833  0.33343694     0.01760
C1219       C  0.81256905  0.87856803  0.62713471     0.01760
C1220       C  0.78652132  0.87983839  0.60175597     0.01760
C1221       C  0.78756400  0.85711099  0.57285737     0.01760
C1222       C  0.81459255  0.83259667  0.57030297     0.01760
C1223       C  0.84080136  0.83159422  0.59578383     0.01760
C1224       C  0.84034637  0.85514700  0.62350485     0.01760
C1225       C  0.31643881  0.16043329  0.14139214     0.01760
C1226       C  0.29154719  0.13420914  0.14153374     0.01760
C1227       C  0.26555746  0.13467857  0.11666687     0.01760
C1228       C  0.26841555  0.15611058  0.08691109     0.01760
C1229       C  0.29680907  0.17952697  0.08355617     0.01760
C1230       C  0.31778497  0.18419148  0.11362376     0.01760
C1231       C  0.80162869  0.67684296  0.82283692     0.01760
C1232       C  0.77473568  0.65313290  0.82645663     0.01760
C1233       C  0.77233589  0.62544095  0.80259716     0.01760
C1234       C  0.79979109  0.61748591  0.77931076     0.01760
C1235       C  0.82754545  0.64152294  0.77810900     0.01760
C1236       C  0.83000430  0.66927250  0.80168192     0.01760
C1237       C  0.13829673  0.34370229  0.08293404     0.01760
C1238       C  0.14187639  0.36933324  0.10884109     0.01760
C1239       C  0.11546928  0.37352171  0.13362312     0.01760
C1240       C  0.09136142  0.34648811  0.13890262     0.01760
C1241       C  0.08925697  0.31916778  0.11408385     0.01760
C1242       C  0.10985160  0.32081846  0.08350573     0.01760
C1243       C  0.60948764  0.85838190  0.77010602     0.01760
C1244       C  0.58674811  0.83065338  0.77493359     0.01760
C1245       C  0.58886857  0.81054435  0.80481997     0.01760
C1246       C  0.61184850  0.81913535  0.83168242     0.01760
C1247       C  0.63670179  0.84513863  0.82525891     0.01760
C1248       C  0.63418342  0.86571645  0.79510988     0.01760
C1249       C  0.32422766  0.68378035  0.30363198     0.01760
C1250       C  0.29543209  0.68225155  0.32599602     0.01760
C1251       C  0.26929966  0.65790274  0.32020882     0.01760
C1252       C  0.27408792  0.63237976  0.29464025     0.01760
C1253       C  0.30148517  0.63517120  0.27115783     0.01760
C1254       C  0.32723505  0.66024322  0.27625912     0.01760
C1255       C  0.57604773  0.32940581  0.31549266     0.01760
C1256       C  0.60703349  0.32687196  0.33427598     0.01760
C1257       C  0.63154055  0.35330178  0.33248337     0.01760
C1258       C  0.62701887  0.38111497  0.30928121     0.01760
C1259       C  0.59778965  0.38209324  0.28777742     0.01760
C1260       C  0.57276212  0.35564423  0.29062859     0.01760
C1261       C  0.32662135  0.36149357  0.63212012     0.01760
C1262       C  0.32917754  0.33558035  0.60647780     0.01760
C1263       C  0.30447940  0.33490617  0.58003167     0.01760
C1264       C  0.27817866  0.35940912  0.57932787     0.01760
C1265       C  0.27911045  0.38822608  0.60170016     0.01760
C1266       C  0.30513297  0.39082449  0.62702932     0.01760
C1267       C  0.81308897  0.88141802  0.28772382     0.01760
C1268       C  0.78573680  0.87895676  0.31179485     0.01760
C1269       C  0.78592306  0.85184592  0.33614064     0.01760
C1270       C  0.81286224  0.82779612  0.33735627     0.01760
C1271       C  0.83770996  0.82753645  0.31075814     0.01760
C1272       C  0.83775675  0.85406578  0.28564428     0.01760
C1273       C  0.32355524  0.84310164  0.77819578     0.01760
C1274       C  0.29401486  0.86402516  0.77292043     0.01760
C1275       C  0.26750800  0.86510328  0.79797124     0.01760
C1276       C  0.26861830  0.84132195  0.82594469     0.01760
C1277       C  0.29836739  0.82091678  0.83207764     0.01760
C1278       C  0.32550989  0.82184489  0.80751878     0.01760
C1279       C  0.78680149  0.35051706  0.83991812     0.01760
C1280       C  0.78835944  0.37860696  0.81658312     0.01760
C1281       C  0.81313384  0.37989760  0.79038856     0.01760
C1282       C  0.83334836  0.35049895  0.78373267     0.01760
C1283       C  0.83155332  0.32178462  0.80627310     0.01760
C1284       C  0.81213875  0.32398166  0.83752644     0.01760
C1285       C  0.33757793  0.33249041  0.30830052     0.01760
C1286       C  0.33383166  0.35904438  0.28369583     0.01760
C1287       C  0.30481099  0.38130028  0.28459366     0.01760
C1288       C  0.27803008  0.37485618  0.30847625     0.01760
C1289       C  0.28063004  0.34673110  0.33223182     0.01760
C1290       C  0.30981793  0.32423389  0.33078171     0.01760
C1291       C  0.57705570  0.64414768  0.62469561     0.01760
C1292       C  0.57995575  0.67005390  0.59906249     0.01760
C1293       C  0.60326936  0.66607090  0.57101861     0.01760
C1294       C  0.62768360  0.63911876  0.57195880     0.01760
C1295       C  0.62405863  0.61226722  0.59660900     0.01760
C1296       C  0.59902008  0.61493674  0.62286846     0.01760
C1297       C  0.69050578  0.89259900  0.11560236    -0.20840
C1298       C  0.66121217  0.90693021  0.10043035    -0.07400
C1299       C  0.66583742  0.93495921  0.07779678     0.13470
C1300       C  0.69941655  0.94631777  0.06969690    -0.20890
C1301       C  0.72866434  0.92889930  0.08199755    -0.07410
C1302       C  0.72358714  0.90195685  0.10545985     0.13460
C1303       C  0.75372650  0.88251425  0.11938891    -0.24240
H1304       H  0.68747261  0.87142919  0.13324403     0.14740
H1305       H  0.70284186  0.96912854  0.05419622     0.14770
C1306       C  0.63536027  0.95260231  0.06225080    -0.24190
H1307       H  0.74559644  0.86157921  0.13681989     0.04980
H1308       H  0.77074322  0.90010922  0.13350915     0.08210
H1309       H  0.76889969  0.87123904  0.09807191     0.08210
H1310       H  0.61884490  0.96309348  0.08303650     0.08190
H1311       H  0.62032819  0.93410655  0.04679379     0.08190
H1312       H  0.64314831  0.97409208  0.04526002     0.04970
C1313       C  0.69900397  0.06271741  0.08023047    -0.20840
C1314       C  0.73085679  0.07871094  0.08522330    -0.07400
C1315       C  0.73297811  0.10972804  0.10386317     0.13470
C1316       C  0.70306765  0.12332939  0.11736276    -0.20890
C1317       C  0.67116849  0.10901219  0.10969319    -0.07410
C1318       C  0.66891030  0.07797078  0.09153185     0.13460
C1319       C  0.63549707  0.06148658  0.08180697    -0.24240
H1320       H  0.69748729  0.03852472  0.06650176     0.14740
H1321       H  0.70413948  0.14738830  0.13119983     0.14770
C1322       C  0.76559413  0.13030931  0.10775125    -0.24190
H1323       H  0.63407739  0.05891854  0.05342904     0.04980
H1324       H  0.61293134  0.07647062  0.09032573     0.08210
H1325       H  0.63398148  0.03555145  0.09348183     0.08210
H1326       H  0.77618696  0.13715046  0.08236403     0.08190
H1327       H  0.78581785  0.11588749  0.12066559     0.08190
H1328       H  0.76135513  0.15438759  0.12246927     0.04970
C1329       C  0.78552994  0.90708959  0.23630530    -0.20840
C1330       C  0.81248058  0.90791294  0.25961864    -0.07400
C1331       C  0.84063395  0.92949911  0.25188288     0.13470
C1332       C  0.84405212  0.94327641  0.21844383    -0.20890
C1333       C  0.81772188  0.93991465  0.19418199    -0.07410
C1334       C  0.78618760  0.92638770  0.20624517     0.13460
C1335       C  0.75179343  0.93433568  0.19118971    -0.24240
H1336       H  0.76355578  0.89130610  0.24115055     0.14740
H1337       H  0.86671769  0.95777804  0.21187917     0.14770
C1338       C  0.86641376  0.93949500  0.27857975    -0.24190
H1339       H  0.73852113  0.91046351  0.18344482     0.04980
H1340       H  0.75289224  0.95237703  0.16978132     0.08210
H1341       H  0.73619700  0.94714083  0.21133069     0.08210
H1342       H  0.89263764  0.93389159  0.26924330     0.08190
H1343       H  0.86452857  0.96755711  0.28319172     0.08190
H1344       H  0.86195572  0.92628087  0.30341805     0.04970
C1345       C  0.79675379  0.10357060  0.19405050    -0.20840
C1346       C  0.82237389  0.07959798  0.18559730    -0.07400
C1347       C  0.83986382  0.06302218  0.21256612     0.13470
C1348       C  0.83175325  0.07161474  0.24689451    -0.20890
C1349       C  0.80891415  0.09858381  0.25465768    -0.07410
C1350       C  0.79098125  0.11451879  0.22756516     0.13460
C1351       C  0.76809944  0.14547521  0.23218858    -0.24240
H1352       H  0.78117297  0.11488012  0.17439902     0.14740
H1353       H  0.84564516  0.05957580  0.26767724     0.14770
C1354       C  0.86756241  0.03712243  0.20525209    -0.24190
H1355       H  0.77516191  0.16562070  0.21331931     0.04980
H1356       H  0.77048271  0.15743025  0.25780479     0.08210
H1357       H  0.74114378  0.13815876  0.22754855     0.08210
H1358       H  0.88822488  0.04928689  0.18999103     0.08190
H1359       H  0.85722859  0.01542934  0.19034875     0.08190
H1360       H  0.87887418  0.02681659  0.22927694     0.04970
C1361       C  0.01912260  0.74286351  0.08079934    -0.20840
C1362       C  0.02908632  0.76779959  0.10476038    -0.07400
C1363       C  0.05157946  0.75837529  0.13172236     0.13470
C1364       C  0.06406434  0.72490406  0.13340507    -0.20890
C1365       C  0.05618628  0.70056087  0.10822196    -0.07410
C1366       C  0.03257692  0.70932380  0.08209472     0.13460
C1367       C  0.02149281  0.68404757  0.05517409    -0.24240
H1368       H  0.00072422  0.74951468  0.06109679     0.14740
H1369       H  0.08326544  0.71893304  0.15249309     0.14770
C1370       C  0.06565538  0.78344567  0.15760380    -0.24190
H1371       H  0.02692523  0.69448264  0.02924997     0.04980
H1372       H  0.99360503  0.67988652  0.05735984     0.08210
H1373       H  0.03441893  0.65881847  0.05782801     0.08210
H1374       H  0.05547597  0.80983007  0.15474373     0.08190
H1375       H  0.09381723  0.78465155  0.15528440     0.08190
H1376       H  0.06079451  0.77403263  0.18394101     0.04970
C1377       C  0.90544541  0.73617790  0.07840431    -0.20840
C1378       C  0.88659357  0.76683875  0.08353786    -0.07400
C1379       C  0.85447498  0.76497789  0.09982207     0.13470
C1380       C  0.84261869  0.73335842  0.11144302    -0.20890
C1381       C  0.85961312  0.70283191  0.10287641    -0.07410
C1382       C  0.89195129  0.70411216  0.08726267     0.13460
C1383       C  0.91142955  0.67177476  0.07900747    -0.24240
H1384       H  0.93081318  0.73736181  0.06716290     0.14740
H1385       H  0.81776100  0.73186898  0.12374453     0.14770
C1386       C  0.83211627  0.79583351  0.10456693    -0.24190
H1387       H  0.93546858  0.67740802  0.06506016     0.04980
H1388       H  0.89585680  0.65461471  0.06257994     0.08210
H1389       H  0.91796647  0.65822579  0.10316303     0.08210
H1390       H  0.82756216  0.80902276  0.07988343     0.08190
H1391       H  0.84509660  0.81344204  0.12187380     0.08190
H1392       H  0.80685857  0.78913496  0.11564831     0.04970
C1393       C  0.00963221  0.88490074  0.23144525    -0.20840
C1394       C  0.00691291  0.85872459  0.20693759    -0.07400
C1395       C  0.01381538  0.82481833  0.21835530     0.13470
C1396       C  0.03733205  0.82019888  0.24505165    -0.20890
C1397       C  0.04588774  0.84787814  0.26643003    -0.07410
C1398       C  0.02665930  0.87861124  0.26272973     0.13460
C1399       C  0.02359219  0.90429582  0.29152562    -0.24240
H1400       H  0.99811417  0.90972040  0.22654312     0.14740
H1401       H  0.04799527  0.79497108  0.24929684     0.14770
C1402       C  0.99237527  0.79426059  0.20808710    -0.24190
H1403       H  0.03217469  0.92999787  0.28329610     0.04980
H1404       H  0.03852350  0.89643592  0.31442442     0.08210
H1405       H  0.99633919  0.90635353  0.29933938     0.08210
H1406       H  0.97088678  0.80095226  0.19104351     0.08190
H1407       H  0.98058402  0.78323686  0.23159258     0.08190
H1408       H  0.00749694  0.77372266  0.19582934     0.04970
C1409       C  0.83354578  0.84183552  0.22453377    -0.20840
C1410       C  0.85535507  0.84942024  0.25181505    -0.07400
C1411       C  0.88739972  0.86426779  0.24436859     0.13470
C1412       C  0.89458308  0.87543476  0.21064064    -0.20890
C1413       C  0.87155287  0.87000095  0.18346390    -0.07410
C1414       C  0.84042052  0.85334499  0.19124959     0.13460
C1415       C  0.81204970  0.85019187  0.16603368    -0.24240
H1416       H  0.80862368  0.83093505  0.23011797     0.14740
H1417       H  0.91885175  0.88747340  0.20538671     0.14770
C1418       C  0.91465745  0.86668573  0.27130024    -0.24190
H1419       H  0.78947526  0.86369556  0.17661796     0.04980
H1420       H  0.80472985  0.82292166  0.16336145     0.08210
H1421       H  0.81871647  0.86168710  0.14085745     0.08210
H1422       H  0.92236530  0.84035493  0.27872187     0.08190
H1423       H  0.90521055  0.88078671  0.29411788     0.08190
H1424       H  0.93778609  0.87999937  0.26155306     0.04970
C1425       C  0.89557817  0.25573674  0.06910612    -0.20840
C1426       C  0.87672305  0.22596768  0.07636382    -0.07400
C1427       C  0.84612353  0.22917467  0.09492198     0.13470
C1428       C  0.83718290  0.26102217  0.10961314    -0.20890
C1429       C  0.85421088  0.29128481  0.09992921    -0.07410
C1430       C  0.88406458  0.28836212  0.07931657     0.13460
C1431       C  0.90395229  0.31904901  0.06692649    -0.24240
H1432       H  0.92007844  0.25334841  0.05616433     0.14740
H1433       H  0.81440790  0.26292490  0.12532921     0.14770
C1434       C  0.82220984  0.19906462  0.09716801    -0.24190
H1435       H  0.90645538  0.31823193  0.03853978     0.04980
H1436       H  0.93000896  0.31838079  0.07807546     0.08210
H1437       H  0.89166647  0.34376087  0.07397716     0.08210
H1438       H  0.80220931  0.20304688  0.11706612     0.08190
H1439       H  0.83619464  0.17494986  0.10232813     0.08190
H1440       H  0.80973613  0.19519502  0.07205717     0.04970
C1441       C  0.90263243  0.11749600  0.22017939    -0.20840
C1442       C  0.88966256  0.13702211  0.19285587    -0.07400
C1443       C  0.86419909  0.16166952  0.19983129     0.13470
C1444       C  0.85161636  0.16557373  0.23304853    -0.20890
C1445       C  0.86313427  0.14494694  0.25992874    -0.07410
C1446       C  0.89029536  0.12172597  0.25387568     0.13460
C1447       C  0.90572378  0.10028491  0.28202111    -0.24240
H1448       H  0.92171872  0.09806948  0.21509415     0.14740
H1449       H  0.82987450  0.18216762  0.23711845     0.14770
C1450       C  0.84787613  0.18190230  0.17186624    -0.24190
H1451       H  0.93304654  0.10723757  0.28510659     0.04980
H1452       H  0.90423213  0.07267195  0.27524304     0.08210
H1453       H  0.89264922  0.10413533  0.30701925     0.08210
H1454       H  0.83373297  0.16328200  0.15591307     0.08190
H1455       H  0.86759289  0.19577485  0.15690011     0.08190
H1456       H  0.82919879  0.20110087  0.18173227     0.04970
C1457       C  0.07172925  0.14438751  0.17934088    -0.20840
C1458       C  0.03813736  0.13228760  0.17938964    -0.07400
C1459       C  0.01975764  0.13355450  0.21091086     0.13470
C1460       C  0.03579496  0.14394913  0.24131297    -0.20890
C1461       C  0.06997419  0.15384513  0.24122527    -0.07410
C1462       C  0.08726391  0.15656705  0.20934289     0.13460
C1463       C  0.12218141  0.17203916  0.20591258    -0.24240
H1464       H  0.08616822  0.14457833  0.15576116     0.14740
H1465       H  0.02221326  0.14202693  0.26557056     0.14770
C1466       C  0.98319739  0.12331733  0.21367131    -0.24190
H1467       H  0.13867701  0.15400319  0.19160763     0.04980
H1468       H  0.13415539  0.17775574  0.23102235     0.08210
H1469       H  0.12043332  0.19613144  0.19081123     0.08210
H1470       H  0.97422218  0.11088630  0.18975742     0.08190
H1471       H  0.96756800  0.14636682  0.21975906     0.08190
H1472       H  0.97999680  0.10447949  0.23479269     0.04970
C1473       C  0.08501031  0.25522496  0.11687574    -0.20840
C1474       C  0.06788729  0.28717806  0.11873968    -0.07400
C1475       C  0.03248159  0.28747000  0.11211456     0.13470
C1476       C  0.01663979  0.25800566  0.09871685    -0.20890
C1477       C  0.03456847  0.22698705  0.09247520    -0.07410
C1478       C  0.06920306  0.22552395  0.10323475     0.13460
C1479       C  0.09050494  0.19373500  0.09877184    -0.24240
H1480       H  0.11221771  0.25459999  0.12214249     0.14740
H1481       H  0.98965760  0.25967796  0.09271851     0.14770
C1482       C  0.01110751  0.31898697  0.11797242    -0.24190
H1483       H  0.11573763  0.19602957  0.11157903     0.04980
H1484       H  0.09493347  0.18879294  0.07122835     0.08210
H1485       H  0.07714201  0.17151725  0.10968194     0.08210
H1486       H  0.98496425  0.31609361  0.10740854     0.08190
H1487       H  0.02279367  0.34182067  0.10578359     0.08190
H1488       H  0.00841608  0.32279155  0.14596732     0.04970
C1489       C  0.89200965  0.11014442  0.70371339    -0.20840
C1490       C  0.87241419  0.12475805  0.73049308    -0.07400
C1491       C  0.84658581  0.14875858  0.72148910     0.13470
C1492       C  0.83891206  0.15497882  0.68702894    -0.20890
C1493       C  0.85632756  0.13812972  0.66050044    -0.07410
C1494       C  0.88477671  0.11740673  0.66883743     0.13460
C1495       C  0.90859521  0.10509709  0.64103248    -0.24240
H1496       H  0.91437129  0.09497370  0.71008242     0.14740
H1497       H  0.81685823  0.17071601  0.68102548     0.14770
C1498       C  0.82727711  0.16938561  0.74782892    -0.24190
H1499       H  0.92267457  0.12741223  0.63052906     0.04980
H1500       H  0.89432008  0.09307408  0.61969883     0.08210
H1501       H  0.92746992  0.08628510  0.65099934     0.08210
H1502       H  0.83657932  0.19617370  0.74663586     0.08190
H1503       H  0.83051694  0.15902815  0.77412016     0.08190
H1504       H  0.79953093  0.16945090  0.74213360     0.04970
C1505       C  0.00337770  0.11259010  0.68371063    -0.20840
C1506       C  0.01731943  0.12245196  0.71535402    -0.07400
C1507       C  0.04886527  0.14000373  0.71587844     0.13470
C1508       C  0.06193726  0.15269901  0.68498404    -0.20890
C1509       C  0.05047793  0.13995726  0.65338478    -0.07410
C1510       C  0.02131291  0.11829975  0.65295630     0.13460
C1511       C  0.01022408  0.09831310  0.62177806    -0.24240
H1512       H  0.97965942  0.09832903  0.68331271     0.14740
H1513       H  0.08437995  0.16879593  0.68549713     0.14770
C1514       C  0.06956818  0.14471570  0.74844024    -0.24190
H1515       H  0.98386447  0.10569971  0.61438660     0.04980
H1516       H  0.00982163  0.07051604  0.62790256     0.08210
H1517       H  0.02770390  0.10183114  0.59966066     0.08210
H1518       H  0.07662723  0.11945971  0.75930085     0.08190
H1519       H  0.05554969  0.15898721  0.76831794     0.08190
H1520       H  0.09317996  0.15946523  0.74395940     0.04970
C1521       C  0.85122003  0.22755198  0.80861709    -0.20840
C1522       C  0.88631417  0.22893899  0.81612418    -0.07400
C1523       C  0.90392804  0.26031853  0.80951018     0.13470
C1524       C  0.88532087  0.28965892  0.80134066    -0.20890
C1525       C  0.85008108  0.28917367  0.79823874    -0.07410
C1526       C  0.83334689  0.25703474  0.79791162     0.13460
C1527       C  0.79679643  0.25364043  0.78675356    -0.24240
H1528       H  0.83754952  0.20367437  0.81153390     0.14740
H1529       H  0.89807900  0.31378617  0.80200373     0.14770
C1530       C  0.94202355  0.26484711  0.81340540    -0.24190
H1531       H  0.78042776  0.24574888  0.80863974     0.04980
H1532       H  0.78738799  0.27791778  0.77538900     0.08210
H1533       H  0.79473620  0.23396759  0.76632468     0.08210
H1534       H  0.95583787  0.24949035  0.79372857     0.08190
H1535       H  0.94967462  0.25736979  0.83976660     0.08190
H1536       H  0.95019283  0.29182581  0.80946796     0.04970
C1537       C  0.02220112  0.25136078  0.83131009    -0.20840
C1538       C  0.02863626  0.22706076  0.80518373    -0.07400
C1539       C  0.04408018  0.23952546  0.77409247     0.13470
C1540       C  0.05986047  0.27135944  0.77408415    -0.20890
C1541       C  0.05635591  0.29409340  0.80121961    -0.07410
C1542       C  0.03351623  0.28567235  0.82803492     0.13460
C1543       C  0.02045868  0.31288360  0.85230472    -0.24240
H1544       H  0.00699450  0.24409493  0.85340808     0.14740
H1545       H  0.07613711  0.27787891  0.75273768     0.14770
C1546       C  0.04493345  0.22230130  0.73933541    -0.24190
H1547       H  0.99221958  0.31457784  0.85031595     0.04980
H1548       H  0.02699135  0.30687441  0.87917044     0.08210
H1549       H  0.03103359  0.33852803  0.84603485     0.08210
H1550       H  0.02838312  0.20003909  0.73626259     0.08190
H1551       H  0.07169439  0.21546884  0.73260605     0.08190
H1552       H  0.03564818  0.24068288  0.71960964     0.04970
C1553       C  0.72736487  0.17613925  0.05423226    -0.20840
C1554       C  0.73077562  0.14787560  0.03210944    -0.07400
C1555       C  0.70150109  0.12891892  0.02335701     0.13470
C1556       C  0.66976313  0.13822681  0.03782176    -0.20890
C1557       C  0.66748908  0.16411631  0.06307729    -0.07410
C1558       C  0.69643134  0.18429028  0.07019510     0.13460
C1559       C  0.69620927  0.21131969  0.09791911    -0.24240
H1560       H  0.74973831  0.19052539  0.06108528     0.14740
H1561       H  0.64755035  0.12246340  0.03284058     0.14770
C1562       C  0.70423925  0.09752395  0.00096184    -0.24190
H1563       H  0.72228454  0.21675760  0.10725593     0.04980
H1564       H  0.68183813  0.20278209  0.12090399     0.08210
H1565       H  0.68500522  0.23525182  0.08755209     0.08210
H1566       H  0.72041263  0.07791042  0.01363657     0.08190
H1567       H  0.71673560  0.10388863  0.97648118     0.08190
H1568       H  0.67880700  0.08612991  0.99563478     0.04970
C1569       C  0.69752115  0.14772027  0.83319537    -0.20840
C1570       C  0.66701579  0.14686884  0.85245254    -0.07400
C1571       C  0.66830597  0.14035678  0.88795618     0.13470
C1572       C  0.69953057  0.13111463  0.90227307    -0.20890
C1573       C  0.73004672  0.12843257  0.88272070    -0.07410
C1574       C  0.72923010  0.13921774  0.84797078     0.13460
C1575       C  0.76105229  0.14263322  0.82634383    -0.24240
H1576       H  0.69623786  0.15370217  0.80606916     0.14740
H1577       H  0.69945330  0.12548233  0.92926921     0.14770
C1578       C  0.63730871  0.14230010  0.91137630    -0.24190
H1579       H  0.75493018  0.15075385  0.79972871     0.04980
H1580       H  0.77493818  0.11794717  0.82496440     0.08210
H1581       H  0.77818837  0.16233739  0.83719880     0.08210
H1582       H  0.61333516  0.14784126  0.89730866     0.08190
H1583       H  0.64115560  0.16247286  0.93102621     0.08190
H1584       H  0.63375287  0.11823248  0.92590246     0.04970
C1585       C  0.79410218  0.24589451  0.02689081    -0.20840
C1586       C  0.82327371  0.24319259  0.00673673    -0.07400
C1587       C  0.84334691  0.27249742  0.00084596     0.13470
C1588       C  0.83526349  0.30292265  0.01874629    -0.20890
C1589       C  0.80998769  0.30290128  0.04457000    -0.07410
C1590       C  0.78875748  0.27384011  0.04817663     0.13460
C1591       C  0.76401667  0.26843513  0.07718900    -0.24240
H1592       H  0.77695781  0.22449728  0.02835187     0.14740
H1593       H  0.85092237  0.32552002  0.01531990     0.14770
C1594       C  0.87388812  0.27109570  0.97747283    -0.24190
H1595       H  0.73743581  0.26868672  0.06733383     0.04980
H1596       H  0.76779379  0.28674422  0.09850026     0.08210
H1597       H  0.76863669  0.24308275  0.08877764     0.08210
H1598       H  0.86559164  0.26399199  0.95131954     0.08190
H1599       H  0.89230512  0.25157486  0.98696906     0.08190
H1600       H  0.88712024  0.29622542  0.97613388     0.04970
C1601       C  0.85322028  0.24904017  0.88553460    -0.20840
C1602       C  0.82506569  0.22663347  0.88614261    -0.07400
C1603       C  0.79168695  0.24231195  0.88411868     0.13470
C1604       C  0.78846932  0.27587623  0.87260252    -0.20890
C1605       C  0.81643524  0.29589174  0.86427744    -0.07410
C1606       C  0.84886041  0.28409643  0.87614844     0.13460
C1607       C  0.87831304  0.30846586  0.88048002    -0.24240
H1608       H  0.87846020  0.23931567  0.89163732     0.14740
H1609       H  0.76340412  0.28506212  0.86797231     0.14770
C1610       C  0.75806060  0.22490219  0.89308682    -0.24190
H1611       H  0.88430904  0.31084326  0.90821509     0.04980
H1612       H  0.87216971  0.33445802  0.87058503     0.08210
H1613       H  0.90155520  0.29877283  0.86741257     0.08210
H1614       H  0.75877069  0.21504358  0.91978500     0.08190
H1615       H  0.75232235  0.20419026  0.87452313     0.08190
H1616       H  0.73581276  0.24268333  0.89211149     0.04970
C1617       C  0.88762222  0.73837850  0.83683748    -0.20840
C1618       C  0.88920221  0.76050178  0.80839734    -0.07400
C1619       C  0.88224654  0.74563590  0.77508303     0.13470
C1620       C  0.86536483  0.71417628  0.77323624    -0.20890
C1621       C  0.85962974  0.69411638  0.80216681    -0.07410
C1622       C  0.87540153  0.70445894  0.83336746     0.13460
C1623       C  0.87895374  0.68030338  0.86327931    -0.24240
H1624       H  0.89660984  0.74721592  0.86161846     0.14740
H1625       H  0.85432768  0.70690206  0.74889564     0.14770
C1626       C  0.89053193  0.76013598  0.73973805    -0.24190
H1627       H  0.90653658  0.67606161  0.86849275     0.04980
H1628       H  0.86716056  0.69143763  0.88670967     0.08210
H1629       H  0.86714886  0.65499926  0.85796600     0.08210
H1630       H  0.90571583  0.78363796  0.73795584     0.08190
H1631       H  0.86641346  0.76458525  0.72538374     0.08190
H1632       H  0.90559486  0.74068657  0.72521116     0.04970
C1633       C  0.08712339  0.84671677  0.70209297    -0.20840
C1634       C  0.06639777  0.84800368  0.67259082    -0.07400
C1635       C  0.03164864  0.85714678  0.67656465     0.13470
C1636       C  0.01971961  0.86862046  0.70880003    -0.20890
C1637       C  0.04084313  0.86911496  0.73800682    -0.07410
C1638       C  0.07470118  0.85680822  0.73454835     0.13460
C1639       C  0.09775218  0.85433113  0.76523651    -0.24240
H1640       H  0.11384410  0.83974556  0.69926295     0.14740
H1641       H  0.99310005  0.87561993  0.71154776     0.14770
C1642       C  0.00691577  0.85489917  0.64709519    -0.24190
H1643       H  0.12395130  0.84588274  0.75806341     0.04980
H1644       H  0.08724095  0.83557040  0.78355102     0.08210
H1645       H  0.09922694  0.87961150  0.77812769     0.08210
H1646       H  0.01709850  0.86795845  0.62395462     0.08190
H1647       H  0.00200063  0.82759246  0.64121401     0.08190
H1648       H  0.98193782  0.86680021  0.65370143     0.04970
C1649       C  0.90944939  0.87758536  0.68829959    -0.20840
C1650       C  0.89436258  0.86446422  0.71836134    -0.07400
C1651       C  0.86482022  0.84371978  0.71523644     0.13470
C1652       C  0.85290449  0.83502025  0.68233054    -0.20890
C1653       C  0.86491051  0.85196445  0.65290296    -0.07410
C1654       C  0.89380324  0.87358830  0.65603931     0.13460
C1655       C  0.90699527  0.89506857  0.62677489    -0.24240
H1656       H  0.93222418  0.89322156  0.69036448     0.14740
H1657       H  0.83090866  0.81843416  0.67992433     0.14770
C1658       C  0.84419792  0.83229603  0.74606791    -0.24190
H1659       H  0.93284704  0.88603227  0.61912036     0.04980
H1660       H  0.90875419  0.92229296  0.63502146     0.08210
H1661       H  0.88995008  0.89449718  0.60414429     0.08210
H1662       H  0.83563462  0.85478754  0.76125888     0.08190
H1663       H  0.85913584  0.81580765  0.76311890     0.08190
H1664       H  0.82119680  0.81757087  0.73850813     0.04970
C1665       C  0.05996035  0.77585829  0.82173913    -0.20840
C1666       C  0.02571004  0.77140043  0.83066918    -0.07400
C1667       C  0.01014602  0.73871598  0.82556186     0.13470
C1668       C  0.02990683  0.71145351  0.81362088    -0.20890
C1669       C  0.06470072  0.71544730  0.80773558    -0.07410
C1670       C  0.07959922  0.74862274  0.80935080     0.13460
C1671       C  0.11626629  0.75578850  0.79954743    -0.24240
H1672       H  0.07157467  0.80074692  0.82496660     0.14740
H1673       H  0.01882697  0.68603333  0.81214534     0.14770
C1674       C  0.97321771  0.73123719  0.83390818    -0.24190
H1675       H  0.12343707  0.78271675  0.80530444     0.04980
H1676       H  0.12085103  0.75189215  0.77181258     0.08210
H1677       H  0.13367431  0.73919093  0.81397097     0.08210
H1678       H  0.95665086  0.74322464  0.81428176     0.08190
H1679       H  0.96676676  0.74080038  0.86002472     0.08190
H1680       H  0.96753298  0.70332662  0.83336367     0.04970
C1681       C  0.65206276  0.92441808  0.81127903    -0.20840
C1682       C  0.65773751  0.89531931  0.79095884    -0.07400
C1683       C  0.69050224  0.88978053  0.77745092     0.13470
C1684       C  0.71834381  0.90573821  0.79306497    -0.20890
C1685       C  0.71358600  0.93201748  0.81721522    -0.07410
C1686       C  0.67961252  0.94423795  0.82296630     0.13460
C1687       C  0.67090892  0.97718985  0.84129605    -0.24240
H1688       H  0.62634973  0.93022178  0.82005245     0.14740
H1689       H  0.74390190  0.89890134  0.78502055     0.14770
C1690       C  0.69580886  0.86826624  0.74598793    -0.24190
H1691       H  0.65122269  0.97256667  0.86134932     0.04980
H1692       H  0.65963821  0.99539782  0.82264073     0.08210
H1693       H  0.69321790  0.98911548  0.85387553     0.08210
H1694       H  0.68458926  0.88190167  0.72371769     0.08190
H1695       H  0.68379010  0.84290227  0.74872630     0.08190
H1696       H  0.72324869  0.86405664  0.74081663     0.04970
C1697       C  0.79333541  0.89315750  0.72175311    -0.20840
C1698       C  0.81840432  0.91712450  0.73059958    -0.07400
C1699       C  0.83863256  0.93135990  0.70420296     0.13470
C1700       C  0.83204837  0.92245114  0.66966187    -0.20890
C1701       C  0.80860742  0.89640230  0.66117399    -0.07410
C1702       C  0.78942699  0.88118183  0.68810010     0.13460
C1703       C  0.76764974  0.84971915  0.68330418    -0.24240
H1704       H  0.77819513  0.88191011  0.74198751     0.14740
H1705       H  0.84762961  0.93336549  0.64943402     0.14770
C1706       C  0.86840289  0.95416660  0.71259953    -0.24190
H1707       H  0.77289164  0.83079467  0.70391298     0.04980
H1708       H  0.77303776  0.83627594  0.65881519     0.08210
H1709       H  0.74028123  0.85694998  0.68483460     0.08210
H1710       H  0.88720620  0.93966475  0.72822971     0.08190
H1711       H  0.85992786  0.97652907  0.72773759     0.08190
H1712       H  0.88151865  0.96343031  0.68903882     0.04970
C1713       C  0.70021142  0.06136884  0.85675938    -0.20840
C1714       C  0.71900016  0.05512731  0.82656288    -0.07400
C1715       C  0.69871822  0.04964520  0.79633102     0.13470
C1716       C  0.66518663  0.06212969  0.79543878    -0.20890
C1717       C  0.65094680  0.08086226  0.82250489    -0.07410
C1718       C  0.66533262  0.07197532  0.85478906     0.13460
C1719       C  0.64198627  0.06378856  0.88417777    -0.24240
H1720       H  0.71220580  0.05753289  0.88150675     0.14740
H1721       H  0.64972013  0.05329173  0.77478525     0.14770
C1722       C  0.70863125  0.02845537  0.76503066    -0.24190
H1723       H  0.63485974  0.03629241  0.88264361     0.04980
H1724       H  0.61808782  0.07916056  0.88286416     0.08210
H1725       H  0.65515552  0.06778523  0.90905923     0.08210
H1726       H  0.68926198  0.00802798  0.76113709     0.08190
H1727       H  0.73298337  0.01469503  0.76626861     0.08190
H1728       H  0.70873608  0.04483882  0.74174996     0.04970
C1729       C  0.83821425  0.04698196  0.69381903    -0.20840
C1730       C  0.82183722  0.06209946  0.72232891    -0.07400
C1731       C  0.79551970  0.08644281  0.71609611     0.13470
C1732       C  0.78913112  0.09736406  0.68242483    -0.20890
C1733       C  0.80847114  0.08505590  0.65469820    -0.07410
C1734       C  0.83160201  0.05778855  0.66016896     0.13460
C1735       C  0.84989878  0.03984724  0.63120760    -0.24240
H1736       H  0.85664535  0.02665936  0.69779799     0.14740
H1737       H  0.77124045  0.11819645  0.67813848     0.14770
C1738       C  0.77392390  0.10154087  0.74424661    -0.24190
H1739       H  0.87776421  0.03890010  0.63634353     0.04980
H1740       H  0.84056526  0.01303078  0.62936705     0.08210
H1741       H  0.84578299  0.05273957  0.60619313     0.08210
H1742       H  0.79007662  0.10862762  0.76641631     0.08190
H1743       H  0.75401114  0.08309994  0.75163673     0.08190
H1744       H  0.76006161  0.12488497  0.73562806     0.04970
C1745       C  0.72804791  0.84934535  0.85802286    -0.20840
C1746       C  0.72483551  0.87322264  0.88454730    -0.07400
C1747       C  0.69288497  0.88859738  0.89108335     0.13470
C1748       C  0.66380840  0.87627864  0.87387008    -0.20890
C1749       C  0.66669404  0.85112978  0.84802964    -0.07410
C1750       C  0.69997596  0.83911031  0.83878758     0.13460
C1751       C  0.70765963  0.81532056  0.80913226    -0.24240
H1752       H  0.75286597  0.83812711  0.85232657     0.14740
H1753       H  0.63919452  0.88826897  0.87864498     0.14770
C1754       C  0.69003297  0.92092100  0.91196002    -0.24190
H1755       H  0.72654743  0.82733448  0.79167728     0.04980
H1756       H  0.68452377  0.80842098  0.79437561     0.08210
H1757       H  0.71997334  0.79152509  0.81876302     0.08210
H1758       H  0.68585018  0.94277284  0.89491373     0.08190
H1759       H  0.71391636  0.92684364  0.92598415     0.08190
H1760       H  0.66777843  0.91974268  0.92964085     0.04970
C1761       C  0.79720857  0.76136840  0.03835595    -0.20840
C1762       C  0.82809655  0.76639558  0.02062979    -0.07400
C1763       C  0.84923995  0.73770498  0.01417981     0.13470
C1764       C  0.83980423  0.70535946  0.02745370    -0.20890
C1765       C  0.81142654  0.70156027  0.04969392    -0.07410
C1766       C  0.78931199  0.73015531  0.05435125     0.13460
C1767       C  0.75950910  0.73033143  0.07902753    -0.24240
H1768       H  0.77987906  0.78271439  0.04166744     0.14740
H1769       H  0.85687634  0.68374066  0.02377137     0.14770
C1770       C  0.88325342  0.74179490  0.99619437    -0.24190
H1771       H  0.76042406  0.75355684  0.09553404     0.04980
H1772       H  0.75985820  0.70825658  0.09676075     0.08210
H1773       H  0.73516153  0.73076049  0.06444043     0.08210
H1774       H  0.89943245  0.76000346  0.01075774     0.08190
H1775       H  0.88027378  0.75230029  0.97003652     0.08190
H1776       H  0.89717164  0.71698014  0.99423144     0.04970
C1777       C  0.80968644  0.77262379  0.83934486    -0.20840
C1778       C  0.81523015  0.77223418  0.87481789    -0.07400
C1779       C  0.80914448  0.74121074  0.89312438     0.13470
C1780       C  0.80281487  0.71095360  0.87545936    -0.20890
C1781       C  0.80033012  0.71076145  0.84002802    -0.07410
C1782       C  0.80137344  0.74240238  0.82170382     0.13460
C1783       C  0.79232127  0.74542693  0.78416376    -0.24240
H1784       H  0.81040504  0.79679693  0.82557460     0.14740
H1785       H  0.80106754  0.68689009  0.88932158     0.14770
C1786       C  0.80897518  0.73908423  0.93141445    -0.24190
H1787       H  0.81285785  0.75883468  0.76992970     0.04980
H1788       H  0.76866157  0.76101884  0.78157590     0.08210
H1789       H  0.78791229  0.72015539  0.77186251     0.08210
H1790       H  0.78818878  0.75542700  0.94193519     0.08190
H1791       H  0.83438678  0.74679016  0.94032923     0.08190
H1792       H  0.80444046  0.71265839  0.94106947     0.04970
C1793       C  0.72326460  0.83605877  0.05883118    -0.20840
C1794       C  0.72965545  0.86211315  0.03479934    -0.07400
C1795       C  0.70142629  0.87851747  0.01958567     0.13470
C1796       C  0.66811256  0.87042076  0.03009031    -0.20890
C1797       C  0.66231874  0.84886701  0.05813568    -0.07410
C1798       C  0.69047823  0.83044504  0.07216330     0.13460
C1799       C  0.68835723  0.80895628  0.10424754    -0.24240
H1800       H  0.74457515  0.82163807  0.06923712     0.14740
H1801       H  0.64669524  0.88403465  0.01879924     0.14770
C1802       C  0.70514000  0.90331220  0.99094334    -0.24190
H1803       H  0.71030052  0.81442967  0.12139212     0.04980
H1804       H  0.68971927  0.78136044  0.09733424     0.08210
H1805       H  0.66518888  0.81485238  0.11958302     0.08210
H1806       H  0.69437745  0.88990516  0.96858400     0.08190
H1807       H  0.73196853  0.91049932  0.98551157     0.08190
H1808       H  0.69051025  0.92717912  0.99645846     0.04970
C1809       C  0.08998246  0.91923203  0.24294085    -0.20840
C1810       C  0.10344939  0.88639894  0.24567727    -0.07400
C1811       C  0.10543485  0.86522396  0.21597044     0.13470
C1812       C  0.09308525  0.87747027  0.18445100    -0.20890
C1813       C  0.07795362  0.90996688  0.18216820    -0.07410
C1814       C  0.07478798  0.92987894  0.21240987     0.13460
C1815       C  0.05535146  0.96283736  0.21306667    -0.24240
H1816       H  0.08802151  0.93519554  0.26569598     0.14740
H1817       H  0.09730501  0.86256838  0.16127265     0.14770
C1818       C  0.12116509  0.82993018  0.21690773    -0.24190
H1819       H  0.03473835  0.96155849  0.23261583     0.04980
H1820       H  0.04286861  0.96813595  0.18806176     0.08210
H1821       H  0.07309057  0.98380745  0.22021997     0.08210
H1822       H  0.10166341  0.81067796  0.21028441     0.08190
H1823       H  0.13131091  0.82317894  0.24254887     0.08190
H1824       H  0.14253045  0.82832674  0.19813195     0.04970
C1825       C  0.23321534  0.89214923  0.12561566    -0.20840
C1826       C  0.26018376  0.90656835  0.10658238    -0.07400
C1827       C  0.25326752  0.93505511  0.08533691     0.13470
C1828       C  0.21926426  0.94402495  0.07874951    -0.20890
C1829       C  0.19202855  0.92819448  0.09580921    -0.07410
C1830       C  0.19929147  0.90309982  0.12094630     0.13460
C1831       C  0.17159816  0.88809463  0.14312503    -0.24240
H1832       H  0.23840359  0.87054395  0.14231526     0.14740
H1833       H  0.21388776  0.96364178  0.05993397     0.14770
C1834       C  0.28094614  0.95663417  0.06951893    -0.24190
H1835       H  0.18131096  0.86669398  0.15923156     0.04980
H1836       H  0.15055210  0.87820492  0.12691672     0.08210
H1837       H  0.16158062  0.90816766  0.16064351     0.08210
H1838       H  0.30619488  0.94386113  0.07029102     0.08190
H1839       H  0.28250666  0.98139072  0.08354938     0.08190
H1840       H  0.27487005  0.96244089  0.04230381     0.04970
C1841       C  0.23698909  0.07960694  0.10519180    -0.20840
C1842       C  0.23504122  0.11200402  0.12040014    -0.07400
C1843       C  0.20241247  0.12521456  0.12964737     0.13470
C1844       C  0.17286554  0.10786644  0.11918807    -0.20890
C1845       C  0.17477546  0.07777135  0.09959870    -0.07410
C1846       C  0.20736829  0.06253295  0.09455741     0.13460
C1847       C  0.21203984  0.02828814  0.07794523    -0.24240
H1848       H  0.26185878  0.06896921  0.09871422     0.14740
H1849       H  0.14796034  0.11795800  0.12641680     0.14770
C1850       C  0.19762218  0.15827127  0.14897595    -0.24190
H1851       H  0.23041130  0.03025801  0.05624154     0.04980
H1852       H  0.18780876  0.01803369  0.06755791     0.08210
H1853       H  0.22260267  0.01046953  0.09742632     0.08210
H1854       H  0.21996454  0.17547970  0.14641713     0.08190
H1855       H  0.19337966  0.15264828  0.17642518     0.08190
H1856       H  0.17448316  0.17195405  0.13978300     0.04970
C1857       C  0.11818635  0.07698567  0.19544408    -0.20840
C1858       C  0.08490890  0.06397094  0.19287596    -0.07400
C1859       C  0.06457985  0.06282512  0.22281874     0.13470
C1860       C  0.07705068  0.07755201  0.25347593    -0.20890
C1861       C  0.10911619  0.09416755  0.25465649    -0.07410
C1862       C  0.13101947  0.09064100  0.22605457     0.13460
C1863       C  0.16789394  0.10102287  0.22702359    -0.24240
H1864       H  0.13479969  0.07640115  0.17351162     0.14740
H1865       H  0.06012452  0.07970526  0.27548201     0.14770
C1866       C  0.02856812  0.04934175  0.22151758    -0.24190
H1867       H  0.18217284  0.08341442  0.24410149     0.04980
H1868       H  0.18001818  0.09876010  0.20131053     0.08210
H1869       H  0.17066183  0.12784104  0.23596377     0.08210
H1870       H  0.02818409  0.02197065  0.21508367     0.08190
H1871       H  0.01413030  0.06260876  0.20102669     0.08190
H1872       H  0.01503923  0.05283111  0.24640283     0.04970
C1873       C  0.08154299  0.06678699  0.66392004    -0.20840
C1874       C  0.10590785  0.09336486  0.66008429    -0.07400
C1875       C  0.12491883  0.10151041  0.68967095     0.13470
C1876       C  0.12264950  0.08229875  0.71944314    -0.20890
C1877       C  0.09576578  0.06014161  0.72493771    -0.07410
C1878       C  0.07448928  0.05202451  0.69675387     0.13460
C1879       C  0.04447181  0.02873833  0.70145689    -0.24240
H1880       H  0.06623987  0.05966296  0.64202335     0.14740
H1881       H  0.13960641  0.08823467  0.74054187     0.14770
C1882       C  0.14507341  0.13271581  0.69338307    -0.24190
H1883       H  0.03105940  0.02391680  0.67681968     0.04980
H1884       H  0.02607195  0.04056195  0.71977790     0.08210
H1885       H  0.05335311  0.00405749  0.71209670     0.08210
H1886       H  0.13832618  0.15171130  0.67388712     0.08190
H1887       H  0.17140197  0.12304423  0.69375131     0.08190
H1888       H  0.13966985  0.14557987  0.71801105     0.04970
C1889       C  0.07169442  0.93752911  0.70518446    -0.20840
C1890       C  0.10091564  0.93944569  0.72612057    -0.07400
C1891       C  0.13289844  0.93284287  0.70967371     0.13470
C1892       C  0.13347443  0.91293958  0.67986589    -0.20890
C1893       C  0.10432961  0.90870671  0.65957719    -0.07410
C1894       C  0.07414173  0.92588563  0.67072255     0.13460
C1895       C  0.04501557  0.93304747  0.64665880    -0.24240
H1896       H  0.04718933  0.94590409  0.71519714     0.14740
H1897       H  0.15701012  0.90039128  0.67346450     0.14770
C1898       C  0.16624738  0.94931401  0.72004937    -0.24190
H1899       H  0.04241786  0.96123247  0.64343438     0.04980
H1900       H  0.02062949  0.92342861  0.65741324     0.08210
H1901       H  0.04949342  0.92165595  0.62088537     0.08210
H1902       H  0.17495554  0.94085377  0.74536808     0.08190
H1903       H  0.16306441  0.97763791  0.72026648     0.08190
H1904       H  0.18718321  0.94324905  0.70161030     0.04970
C1905       C  0.17323503  0.10909023  0.79759513    -0.20840
C1906       C  0.17667586  0.08096649  0.81980994    -0.07400
C1907       C  0.21008882  0.06721153  0.82513127     0.13470
C1908       C  0.23862222  0.08415482  0.81200813    -0.20890
C1909       C  0.23530856  0.11480265  0.79409826    -0.07410
C1910       C  0.20204262  0.12576587  0.78378341     0.13460
C1911       C  0.19588439  0.15658957  0.76099852    -0.24240
H1912       H  0.14792224  0.11890424  0.79190077     0.14740
H1913       H  0.26405225  0.07537659  0.81889894     0.14770
C1914       C  0.21674382  0.03508338  0.84517799    -0.24190
H1915       H  0.19649417  0.14963414  0.73410710     0.04980
H1916       H  0.21536850  0.17671483  0.76429364     0.08210
H1917       H  0.16975408  0.16722233  0.76388829     0.08210
H1918       H  0.20494271  0.01333170  0.83121398     0.08190
H1919       H  0.20626186  0.03773460  0.87159258     0.08190
H1920       H  0.24444052  0.02915378  0.84761640     0.04970
C1921       C  0.17850358  0.90312540  0.79783372    -0.20840
C1922       C  0.17932693  0.92217403  0.82852064    -0.07400
C1923       C  0.21192705  0.92939386  0.84287460     0.13470
C1924       C  0.24177463  0.91538392  0.82782066    -0.20890
C1925       C  0.24041199  0.89312783  0.79933153    -0.07410
C1926       C  0.20867250  0.89006854  0.78221453     0.13460
C1927       C  0.20632957  0.87326358  0.74750884    -0.24240
H1928       H  0.15424832  0.89934431  0.78527311     0.14740
H1929       H  0.26600152  0.91834432  0.84094475     0.14770
C1930       C  0.21523892  0.94847548  0.87647232    -0.24190
H1931       H  0.17959485  0.87249582  0.73803778     0.04980
H1932       H  0.22158959  0.88811856  0.72868638     0.08210
H1933       H  0.21590261  0.84665255  0.74849778     0.08210
H1934       H  0.19738762  0.93771520  0.89565516     0.08190
H1935       H  0.20845976  0.97561827  0.87363158     0.08190
H1936       H  0.24161743  0.94714384  0.88688924     0.04970
C1937       C  0.13321933  0.72112335  0.87916762    -0.20840
C1938       C  0.10521806  0.70211764  0.86819595    -0.07400
C1939       C  0.07324415  0.71164428  0.88313065     0.13470
C1940       C  0.06831259  0.74575245  0.89537546    -0.20890
C1941       C  0.09611930  0.76852621  0.89692490    -0.07410
C1942       C  0.12947508  0.75313742  0.89462341     0.13460
C1943       C  0.16214548  0.76921764  0.90790957    -0.24240
H1944       H  0.15861481  0.71289705  0.87406391     0.14740
H1945       H  0.04306535  0.75441267  0.90300968     0.14770
C1946       C  0.04551027  0.68552817  0.88833591    -0.24190
H1947       H  0.18406118  0.75098467  0.90766452     0.04980
H1948       H  0.15878798  0.77745222  0.93501210     0.08210
H1949       H  0.16986767  0.79090676  0.89150914     0.08210
H1950       H  0.05192932  0.66074898  0.87572792     0.08190
H1951       H  0.04246911  0.68081265  0.91629461     0.08190
H1952       H  0.02064823  0.69488301  0.87863644     0.04970
C1953       C  0.09113733  0.72995451  0.00673930    -0.20840
C1954       C  0.09176728  0.76180987  0.02383518    -0.07400
C1955       C  0.10284949  0.76340915  0.05820211     0.13470
C1956       C  0.11428097  0.73352675  0.07403417    -0.20890
C1957       C  0.10985069  0.70137549  0.05856509    -0.07410
C1958       C  0.09915141  0.69948318  0.02404437     0.13460
C1959       C  0.09526260  0.66601208  0.00509261    -0.24240
H1960       H  0.08386826  0.72877761  0.97988998     0.14740
H1961       H  0.12323795  0.73472851  0.10032834     0.14770
C1962       C  0.10203950  0.79622080  0.07886831    -0.24190
H1963       H  0.11331771  0.66532921  0.98303161     0.04980
H1964       H  0.10039236  0.64345809  0.02155351     0.08210
H1965       H  0.06882423  0.66363897  0.99512119     0.08210
H1966       H  0.07580953  0.80576372  0.08206274     0.08190
H1967       H  0.11538737  0.81715501  0.06577196     0.08190
H1968       H  0.11393258  0.79285744  0.10429979     0.04970
C1969       C  0.17835182  0.84940126  0.85990604    -0.20840
C1970       C  0.18454479  0.86754653  0.89033726    -0.07400
C1971       C  0.21867428  0.86886751  0.90281769     0.13470
C1972       C  0.24561595  0.85663258  0.88250715    -0.20890
C1973       C  0.23952478  0.84178991  0.85061678    -0.07410
C1974       C  0.20519899  0.83576416  0.84034121     0.13460
C1975       C  0.19580405  0.81474436  0.80928303    -0.24240
H1976       H  0.15231228  0.84540855  0.85132289     0.14740
H1977       H  0.27183080  0.86043945  0.89064781     0.14770
C1978       C  0.22760093  0.88303777  0.93735527    -0.24190
H1979       H  0.17667112  0.82847565  0.79344640     0.04980
H1980       H  0.18385088  0.79044515  0.81783870     0.08210
H1981       H  0.21821445  0.80854221  0.79303024     0.08210
H1982       H  0.21966725  0.86425379  0.95712952     0.08190
H1983       H  0.21517786  0.90821675  0.94190122     0.08190
H1984       H  0.25554706  0.88681956  0.93959789     0.04970
C1985       C  0.21265929  0.88587539  0.02179795    -0.20840
C1986       C  0.18813509  0.86515835  0.03847517    -0.07400
C1987       C  0.20048800  0.84014275  0.06207216     0.13470
C1988       C  0.23481227  0.83876301  0.07045176    -0.20890
C1989       C  0.25895191  0.85867986  0.05367944    -0.07410
C1990       C  0.24820042  0.88143323  0.02786404     0.13460
C1991       C  0.27445598  0.89929001  0.00611229    -0.24240
H1992       H  0.20416741  0.90388416  0.00247216     0.14740
H1993       H  0.24331735  0.82187948  0.09084835     0.14770
C1994       C  0.17854793  0.81425898  0.07939110    -0.24190
H1995       H  0.26277378  0.91986968  0.99029315     0.04980
H1996       H  0.28710025  0.88005956  0.98925637     0.08210
H1997       H  0.29487866  0.91060198  0.02194913     0.08210
H1998       H  0.16729499  0.79734874  0.05958429     0.08190
H1999       H  0.15995164  0.82820407  0.09564071     0.08190
H2000       H  0.19294143  0.79700009  0.09692288     0.04970
C2001       C  0.24862710  0.13229478  0.87955342    -0.20840
C2002       C  0.24077406  0.15550825  0.85318639    -0.07400
C2003       C  0.20664060  0.16613023  0.84818767     0.13470
C2004       C  0.18125033  0.15017768  0.86609199    -0.20890
C2005       C  0.18843526  0.12691349  0.89200330    -0.07410
C2006       C  0.22259661  0.11888022  0.90024713     0.13460
C2007       C  0.23165776  0.09652332  0.93013553    -0.24240
H2008       H  0.27491398  0.12427775  0.88337349     0.14740
H2009       H  0.15517027  0.15722116  0.86009398     0.14770
C2010       C  0.19532027  0.19610772  0.82703288    -0.24190
H2011       H  0.25929404  0.08986784  0.93025753     0.04980
H2012       H  0.21676943  0.07233774  0.92926296     0.08210
H2013       H  0.22618443  0.11094069  0.95403245     0.08210
H2014       H  0.21557635  0.20632915  0.81007985     0.08190
H2015       H  0.18591515  0.21674611  0.84435226     0.08190
H2016       H  0.17254905  0.18920122  0.81231188     0.04970
C2017       C  0.10909972  0.21976537  0.84053361    -0.20840
C2018       C  0.08954947  0.21661768  0.87066512    -0.07400
C2019       C  0.08046736  0.24674415  0.88895708     0.13470
C2020       C  0.09279585  0.27871894  0.87802940    -0.20890
C2021       C  0.11050796  0.28193118  0.84693360    -0.07410
C2022       C  0.11913951  0.25201871  0.82802252     0.13460
C2023       C  0.13709179  0.25388218  0.79355218    -0.24240
H2024       H  0.11642452  0.19677834  0.82668354     0.14740
H2025       H  0.08547821  0.30171223  0.89195637     0.14770
C2026       C  0.05617065  0.24611014  0.91901024    -0.24190
H2027       H  0.16320220  0.24353681  0.79503455     0.04980
H2028       H  0.12278281  0.23903140  0.77400907     0.08210
H2029       H  0.14006944  0.28041897  0.78414188     0.08210
H2030       H  0.06881476  0.25698176  0.94204357     0.08190
H2031       H  0.04655156  0.21994175  0.92438196     0.08190
H2032       H  0.03331377  0.26191027  0.91345230     0.04970
C2033       C  0.06218251  0.25997258  0.02254225    -0.20840
C2034       C  0.08747693  0.23499805  0.01650744    -0.07400
C2035       C  0.12190476  0.24518186  0.02223127     0.13470
C2036       C  0.12864170  0.27228908  0.04468626    -0.20890
C2037       C  0.10315348  0.29555561  0.05447424    -0.07410
C2038       C  0.07044727  0.29139539  0.03897025     0.13460
C2039       C  0.04496998  0.32031535  0.03733203    -0.24240
H2040       H  0.03644502  0.25567061  0.01329006     0.14740
H2041       H  0.15445516  0.27575410  0.05289599     0.14770
C2042       C  0.15223877  0.23200612  0.00208028    -0.24190
H2043       H  0.04120693  0.32765006  0.01005110     0.04980
H2044       H  0.05387022  0.34339599  0.05136015     0.08210
H2045       H  0.01988546  0.31209644  0.04764464     0.08210
H2046       H  0.14555439  0.21651568  0.97945587     0.08190
H2047       H  0.16939579  0.21726432  0.01884620     0.08190
H2048       H  0.16686544  0.25411106  0.99170942     0.04970
C2049       C  0.17723780  0.16351774  0.05989436    -0.20840
C2050       C  0.17228951  0.13349688  0.04064145    -0.07400
C2051       C  0.20125846  0.11413132  0.03097431     0.13470
C2052       C  0.23415454  0.12453150  0.04222140    -0.20890
C2053       C  0.23864733  0.15430099  0.06267631    -0.07410
C2054       C  0.20961428  0.17486788  0.06945227     0.13460
C2055       C  0.21181626  0.21005737  0.08492057    -0.24240
H2056       H  0.15550855  0.17989873  0.06547542     0.14740
H2057       H  0.25600501  0.10806229  0.03731821     0.14770
C2058       C  0.19690323  0.08170410  0.01043695    -0.24190
H2059       H  0.20292449  0.22813099  0.06517833     0.04980
H2060       H  0.23797470  0.21692448  0.09255981     0.08210
H2061       H  0.19460023  0.21342215  0.10721278     0.08210
H2062       H  0.18392101  0.08716844  0.98586312     0.08190
H2063       H  0.18040455  0.06357198  0.02469776     0.08190
H2064       H  0.22183493  0.06908330  0.00500098     0.04970
C2065       C  0.90035590  0.23353602  0.58343118    -0.20840
C2066       C  0.88164627  0.26117729  0.59754012    -0.07400
C2067       C  0.85498371  0.25305400  0.62100925     0.13470
C2068       C  0.84560413  0.21906419  0.62679576    -0.20890
C2069       C  0.86022806  0.19232562  0.60819408    -0.07410
C2070       C  0.88926269  0.19922813  0.58769270     0.13460
C2071       C  0.90785713  0.17092831  0.56924639    -0.24240
H2072       H  0.92291627  0.23871328  0.56815776     0.14740
H2073       H  0.82377035  0.21375254  0.64297539     0.14770
C2074       C  0.83464364  0.28003618  0.63908183    -0.24190
H2075       H  0.91049844  0.17707288  0.54153774     0.04980
H2076       H  0.89482818  0.14582040  0.57170160     0.08210
H2077       H  0.93334805  0.16821175  0.58081119     0.08210
H2078       H  0.82168952  0.29584481  0.61933414     0.08190
H2079       H  0.85186583  0.29496193  0.65582202     0.08190
H2080       H  0.81450075  0.26929181  0.65607543     0.04970
C2081       C  0.00897173  0.23323866  0.57796760    -0.20840
C2082       C  0.02560377  0.26379212  0.58733460    -0.07400
C2083       C  0.05726315  0.26099823  0.60454532     0.13470
C2084       C  0.07096043  0.22848540  0.61237156    -0.20890
C2085       C  0.05469654  0.19801732  0.60218564    -0.07410
C2086       C  0.02299464  0.20072205  0.58519426     0.13460
C2087       C  0.00287184  0.16957521  0.57587796    -0.24240
H2088       H  0.98407606  0.23478987  0.56595486     0.14740
H2089       H  0.09568635  0.22673676  0.62480106     0.14770
C2090       C  0.07577416  0.29224690  0.61638375    -0.24190
H2091       H  0.01957767  0.14868528  0.56640549     0.04980
H2092       H  0.98884964  0.16118606  0.59905978     0.08210
H2093       H  0.98435735  0.17536748  0.55512163     0.08210
H2094       H  0.05873469  0.30547478  0.63464928     0.08190
H2095       H  0.08135661  0.30914675  0.59419824     0.08190
H2096       H  0.10017352  0.28600545  0.62955132     0.04970
C2097       C  0.83447472  0.34519348  0.72015402    -0.20840
C2098       C  0.85310635  0.35031955  0.75073371    -0.07400
C2099       C  0.88479494  0.36755027  0.74862243     0.13470
C2100       C  0.89585529  0.38017880  0.71688652    -0.20890
C2101       C  0.87867065  0.37344207  0.68608457    -0.07410
C2102       C  0.84637835  0.35758492  0.68818330     0.13460
C2103       C  0.82272781  0.35758721  0.65796850    -0.24240
H2104       H  0.80894781  0.33456261  0.72191955     0.14740
H2105       H  0.91848182  0.39568283  0.71592634     0.14770
C2106       C  0.90737003  0.37387097  0.77935323    -0.24190
H2107       H  0.79885130  0.34315992  0.66323245     0.04980
H2108       H  0.83498255  0.34728407  0.63468316     0.08210
H2109       H  0.81612109  0.38417481  0.65210090     0.08210
H2110       H  0.91901125  0.39963116  0.77837602     0.08190
H2111       H  0.89347022  0.37146882  0.80409720     0.08190
H2112       H  0.92907311  0.35548232  0.77867757     0.04970
C2113       C  0.06654135  0.35096077  0.68579900    -0.20840
C2114       C  0.03367390  0.36471223  0.68695801    -0.07400
C2115       C  0.01686406  0.36755556  0.71905819     0.13470
C2116       C  0.03419409  0.35957758  0.74929899    -0.20890
C2117       C  0.06709018  0.34600182  0.74785948    -0.07410
C2118       C  0.08215119  0.33869720  0.71548022     0.13460
C2119       C  0.11331720  0.31643486  0.71102529    -0.24240
H2120       H  0.07964931  0.34846196  0.66143788     0.14740
H2121       H  0.02237265  0.36435923  0.77409605     0.14770
C2122       C  0.98046876  0.37840805  0.72157099    -0.24190
H2123       H  0.13195883  0.32889433  0.69371533     0.04980
H2124       H  0.12557008  0.31014079  0.73576511     0.08210
H2125       H  0.10569211  0.29202039  0.69852575     0.08210
H2126       H  0.96438655  0.35651931  0.71347833     0.08190
H2127       H  0.97576650  0.40108324  0.70502965     0.08190
H2128       H  0.97347219  0.38548828  0.74828685     0.04970
C2129       C  0.70033568  0.37571885  0.39674801    -0.20840
C2130       C  0.72958795  0.36632540  0.37818085    -0.07400
C2131       C  0.72618408  0.34771950  0.34738808     0.13470
C2132       C  0.69343570  0.33906315  0.33557825    -0.20890
C2133       C  0.66397284  0.35127247  0.35249096    -0.07410
C2134       C  0.66755288  0.36899650  0.38399639     0.13460
C2135       C  0.63742727  0.38107618  0.40482240    -0.24240
H2136       H  0.70311310  0.38798422  0.42157507     0.14740
H2137       H  0.69082340  0.32612634  0.31107705     0.14770
C2138       C  0.75730106  0.33991312  0.32566781    -0.24190
H2139       H  0.64029405  0.40864794  0.41133235     0.04980
H2140       H  0.63664058  0.36624908  0.42890984     0.08210
H2141       H  0.61272229  0.37763188  0.39143875     0.08210
H2142       H  0.77829728  0.32922003  0.34080763     0.08190
H2143       H  0.76814262  0.36408167  0.31586569     0.08190
H2144       H  0.75141997  0.32230950  0.30404943     0.04970
C2145       C  0.68943690  0.34645686  0.57426003    -0.20840
C2146       C  0.65819868  0.35317893  0.55742149    -0.07400
C2147       C  0.65933136  0.36533628  0.52347182     0.13470
C2148       C  0.69119945  0.37317705  0.50856719    -0.20890
C2149       C  0.72243521  0.36829460  0.52635518    -0.07410
C2150       C  0.72125462  0.35345912  0.55930578     0.13460
C2151       C  0.75319324  0.34520325  0.57934454    -0.24240
H2152       H  0.68904133  0.33737198  0.60049266     0.14740
H2153       H  0.69159601  0.38269075  0.48244382     0.14770
C2154       C  0.62745108  0.36983708  0.50237452    -0.24190
H2155       H  0.74766278  0.32962465  0.60249599     0.04980
H2156       H  0.76649651  0.36900945  0.58697035     0.08210
H2157       H  0.77112141  0.33030459  0.56363290     0.08210
H2158       H  0.60368030  0.36714373  0.51765532     0.08190
H2159       H  0.62701427  0.34968447  0.48230947     0.08190
H2160       H  0.62715807  0.39560953  0.49023854     0.04970
C2161       C  0.83227743  0.20129421  0.38803903    -0.20840
C2162       C  0.80843171  0.19883850  0.36137170    -0.07400
C2163       C  0.79212745  0.22943800  0.34960409     0.13470
C2164       C  0.79896824  0.26016236  0.36634137    -0.20890
C2165       C  0.82608249  0.26344606  0.38919452    -0.07410
C2166       C  0.84312247  0.23338671  0.40001099     0.13460
C2167       C  0.87401491  0.23441315  0.42253496    -0.24240
H2168       H  0.84595584  0.17843334  0.39610445     0.14740
H2169       H  0.78272521  0.28157867  0.36134201     0.14770
C2170       C  0.77002048  0.23235269  0.31781613    -0.24190
H2171       H  0.89627492  0.22316845  0.40914450     0.04980
H2172       H  0.86891198  0.21861218  0.44553534     0.08210
H2173       H  0.88142980  0.26099132  0.42920989     0.08210
H2174       H  0.74352395  0.23966880  0.32523581     0.08190
H2175       H  0.76977556  0.20840270  0.30236592     0.08190
H2176       H  0.77944541  0.25318162  0.30099309     0.04970
C2177       C  0.79189370  0.25723737  0.55680772    -0.20840
C2178       C  0.81952907  0.26597790  0.53553325    -0.07400
C2179       C  0.84193633  0.23975404  0.52504852     0.13470
C2180       C  0.83459349  0.20527505  0.53372821    -0.20890
C2181       C  0.80897772  0.19721091  0.55808433    -0.07410
C2182       C  0.78838108  0.22449808  0.57077513     0.13460
C2183       C  0.76540179  0.22188600  0.60178311    -0.24240
H2184       H  0.77368389  0.27644914  0.56459213     0.14740
H2185       H  0.85145239  0.18504500  0.52481599     0.14770
C2186       C  0.87428255  0.24878409  0.50645958    -0.24190
H2187       H  0.73835797  0.22552246  0.59395876     0.04980
H2188       H  0.76896773  0.19759922  0.61604253     0.08210
H2189       H  0.77153863  0.24266377  0.62023474     0.08210
H2190       H  0.89024490  0.26566902  0.52264875     0.08190
H2191       H  0.86784142  0.26371094  0.48338819     0.08190
H2192       H  0.88963427  0.22570241  0.49980388     0.04970
C2193       C  0.20875037  0.38126206  0.51800744    -0.20840
C2194       C  0.18019586  0.37071076  0.53705678    -0.07400
C2195       C  0.18489885  0.34928539  0.56566436     0.13470
C2196       C  0.21818774  0.33969965  0.57489430    -0.20890
C2197       C  0.24689359  0.35382965  0.55825666    -0.07410
C2198       C  0.24208210  0.37295113  0.52807286     0.13460
C2199       C  0.27207029  0.38501052  0.50699860    -0.24240
H2200       H  0.20465722  0.39517918  0.49454943     0.14740
H2201       H  0.22151450  0.32513941  0.59811326     0.14770
C2202       C  0.15471531  0.33796308  0.58734696    -0.24190
H2203       H  0.26374182  0.40081908  0.48482883     0.04980
H2204       H  0.28620098  0.36244414  0.49686474     0.08210
H2205       H  0.28968606  0.40063396  0.52281328     0.08210
H2206       H  0.13484640  0.32533660  0.57171847     0.08190
H2207       H  0.14228712  0.36051321  0.59942281     0.08190
H2208       H  0.16255824  0.31986353  0.60789270     0.04970
C2209       C  0.25298025  0.37124224  0.38414755    -0.20840
C2210       C  0.25301717  0.34473682  0.35948751    -0.07400
C2211       C  0.22135474  0.32866682  0.35261240     0.13470
C2212       C  0.19078444  0.34216000  0.36647426    -0.20890
C2213       C  0.19023752  0.37154306  0.38718896    -0.07410
C2214       C  0.22217477  0.38558886  0.39700035     0.13460
C2215       C  0.22380480  0.41787559  0.41821900    -0.24240
H2216       H  0.27697531  0.38373777  0.38993272     0.14740
H2217       H  0.16693556  0.33010565  0.36015044     0.14770
C2218       C  0.21888555  0.29885527  0.32859663    -0.24190
H2219       H  0.25055195  0.42632539  0.42246708     0.04980
H2220       H  0.21175844  0.41391461  0.44342255     0.08210
H2221       H  0.20987208  0.43889026  0.40509782     0.08210
H2222       H  0.23143690  0.27623260  0.34033249     0.08190
H2223       H  0.23063131  0.30500251  0.30360717     0.08190
H2224       H  0.19188309  0.29270617  0.32327785     0.04970
C2225       C  0.11686634  0.27128315  0.34809890    -0.20840
C2226       C  0.09297933  0.27680668  0.37454861    -0.07400
C2227       C  0.07748191  0.24787514  0.38995981     0.13470
C2228       C  0.08556705  0.21446050  0.37792964    -0.20890
C2229       C  0.10787140  0.20936985  0.34988677    -0.07410
C2230       C  0.12433786  0.23841402  0.33546230     0.13460
C2231       C  0.14961704  0.23560906  0.30607817    -0.24240
H2232       H  0.12951967  0.29310461  0.33664216     0.14740
H2233       H  0.07225780  0.19251571  0.38849110     0.14770
C2234       C  0.05110307  0.25235111  0.41779041    -0.24190
H2235       H  0.14404599  0.25529395  0.28629341     0.04980
H2236       H  0.17578699  0.24007952  0.31564236     0.08210
H2237       H  0.14990779  0.20996782  0.29376961     0.08210
H2238       H  0.02956677  0.26812959  0.40812118     0.08190
H2239       H  0.06197589  0.26579863  0.43990865     0.08190
H2240       H  0.04115926  0.22735355  0.42701902     0.04970
C2241       C  0.12768858  0.22118409  0.55415056    -0.20840
C2242       C  0.10372915  0.19527633  0.54912741    -0.07400
C2243       C  0.07814856  0.20023263  0.52389765     0.13470
C2244       C  0.07341506  0.23324724  0.51002001    -0.20890
C2245       C  0.09736499  0.25918930  0.51640261    -0.07410
C2246       C  0.12769448  0.25017894  0.53373031     0.13460
C2247       C  0.16151386  0.26713679  0.52699961    -0.24240
H2248       H  0.14648979  0.21920395  0.57405488     0.14740
H2249       H  0.05207245  0.23812400  0.49305806     0.14770
C2250       C  0.05699112  0.17128199  0.51010554    -0.24190
H2251       H  0.18285067  0.25387406  0.54041363     0.04980
H2252       H  0.16128666  0.29352125  0.53582024     0.08210
H2253       H  0.16720070  0.26654895  0.49904300     0.08210
H2254       H  0.02944453  0.17764290  0.51214173     0.08190
H2255       H  0.06234354  0.14673686  0.52347453     0.08190
H2256       H  0.06309498  0.16764037  0.48246204     0.04970
C2257       C  0.18745330  0.41571952  0.60969012    -0.20840
C2258       C  0.18456742  0.43801503  0.58203622    -0.07400
C2259       C  0.21435122  0.44877212  0.56451784     0.13470
C2260       C  0.24634431  0.43609364  0.57509563    -0.20890
C2261       C  0.24867387  0.41121130  0.60109771    -0.07410
C2262       C  0.21855402  0.40139866  0.61890453     0.13460
C2263       C  0.21812547  0.37488950  0.64703275    -0.24240
H2264       H  0.16478394  0.40854549  0.62360035     0.14740
H2265       H  0.26908753  0.44316386  0.56087736     0.14770
C2266       C  0.21262398  0.47063032  0.53267105    -0.24190
H2267       H  0.21549770  0.38789043  0.67213538     0.04980
H2268       H  0.24157314  0.35937994  0.64705947     0.08210
H2269       H  0.19632247  0.35708682  0.64394849     0.08210
H2270       H  0.22878697  0.49363907  0.53549612     0.08190
H2271       H  0.18615527  0.47886711  0.52656332     0.08190
H2272       H  0.22254228  0.45574802  0.51043109     0.04970
C2273       C  0.21090544  0.55743512  0.58378618    -0.20840
C2274       C  0.18207639  0.57788902  0.59146892    -0.07400
C2275       C  0.18697034  0.60790467  0.61093482     0.13470
C2276       C  0.21992564  0.61771185  0.62039641    -0.20890
C2277       C  0.24877974  0.60103042  0.60698613    -0.07410
C2278       C  0.24440873  0.56928436  0.59024969     0.13460
C2279       C  0.27497087  0.54826092  0.57973022    -0.24240
H2280       H  0.20708552  0.53233981  0.57279813     0.14740
H2281       H  0.22332468  0.64064911  0.63565518     0.14770
C2282       C  0.15750760  0.62966037  0.62280565    -0.24190
H2283       H  0.26742970  0.52403700  0.56700417     0.04980
H2284       H  0.29005235  0.54152676  0.60285018     0.08210
H2285       H  0.29133223  0.56300481  0.56174711     0.08210
H2286       H  0.13291911  0.62249739  0.61071600     0.08190
H2287       H  0.16157419  0.65705508  0.61697314     0.08190
H2288       H  0.15581265  0.62635763  0.65070389     0.04970
C2289       C  0.08447880  0.41998619  0.75069828    -0.20840
C2290       C  0.11437830  0.39963087  0.75560846    -0.07400
C2291       C  0.13737984  0.39676212  0.72772105     0.13470
C2292       C  0.12872953  0.41071752  0.69603756    -0.20890
C2293       C  0.09721697  0.42670754  0.68971389    -0.07410
C2294       C  0.07487025  0.43201121  0.71759952     0.13460
C2295       C  0.04040483  0.44828574  0.71181898    -0.24240
H2296       H  0.06634284  0.42226522  0.77168326     0.14740
H2297       H  0.14682048  0.40777644  0.67538779     0.14770
C2298       C  0.16921508  0.37529937  0.72864800    -0.24190
H2299       H  0.02629295  0.45244449  0.73627798     0.04980
H2300       H  0.02493317  0.43205915  0.69466914     0.08210
H2301       H  0.04303936  0.47268858  0.69788929     0.08210
H2302       H  0.16550737  0.35225281  0.74451167     0.08190
H2303       H  0.19108173  0.39129356  0.73681909     0.08190
H2304       H  0.17538540  0.36481427  0.70304638     0.04970
C2305       C  0.09729993  0.60734566  0.68476073    -0.20840
C2306       C  0.08295514  0.57472991  0.68890060    -0.07400
C2307       C  0.08131607  0.56113272  0.72289893     0.13470
C2308       C  0.09381370  0.58002125  0.75087564    -0.20890
C2309       C  0.10870625  0.61212689  0.74635732    -0.07410
C2310       C  0.11178202  0.62531124  0.71258685     0.13460
C2311       C  0.13132168  0.65774188  0.70535568    -0.24240
H2312       H  0.09849310  0.61823915  0.65931785     0.14740
H2313       H  0.09045732  0.57040964  0.77679894     0.14770
C2314       C  0.06553302  0.52707995  0.73056044    -0.24190
H2315       H  0.12191188  0.67035563  0.68163134     0.04980
H2316       H  0.15862516  0.65137481  0.70133313     0.08210
H2317       H  0.12979543  0.67622365  0.72686098     0.08210
H2318       H  0.08317571  0.50645254  0.72206538     0.08190
H2319       H  0.04041254  0.52554034  0.71755575     0.08190
H2320       H  0.06106856  0.52325067  0.75849486     0.04970
C2321       C  0.19144395  0.66594731  0.55361348    -0.20840
C2322       C  0.18452942  0.63714529  0.53331976    -0.07400
C2323       C  0.21157383  0.61567432  0.52296129     0.13470
C2324       C  0.24527298  0.62441045  0.53257415    -0.20890
C2325       C  0.25145992  0.65124346  0.55630203    -0.07410
C2326       C  0.22337895  0.67161938  0.56753141     0.13460
C2327       C  0.22530733  0.69782146  0.59626898    -0.24240
H2328       H  0.17095680  0.68293749  0.56105307     0.14740
H2329       H  0.26618186  0.60758502  0.52534196     0.14770
C2330       C  0.20446193  0.58283685  0.50381273    -0.24190
H2331       H  0.20576222  0.69296993  0.61623403     0.04980
H2332       H  0.22062433  0.72395449  0.58618706     0.08210
H2333       H  0.25013597  0.69726812  0.60925056     0.08210
H2334       H  0.18850912  0.58794252  0.48101717     0.08190
H2335       H  0.18937366  0.56516930  0.52004785     0.08190
H2336       H  0.22843856  0.56959089  0.49598480     0.04970
C2337       C  0.24497038  0.64232319  0.37622879    -0.20840
C2338       C  0.23888239  0.65554113  0.34356130    -0.07400
C2339       C  0.20443466  0.65892511  0.33220558     0.13470
C2340       C  0.17773593  0.64684842  0.35298146    -0.20890
C2341       C  0.18387479  0.63190043  0.38515933    -0.07410
C2342       C  0.21829582  0.63049869  0.39708904     0.13460
C2343       C  0.22800740  0.61575046  0.43123965    -0.24240
H2344       H  0.27122710  0.63947238  0.38469638     0.14740
H2345       H  0.15165538  0.65015248  0.34414903     0.14770
C2346       C  0.19429228  0.67553213  0.29877651    -0.24190
H2347       H  0.25615130  0.61422174  0.43474224     0.04980
H2348       H  0.21810680  0.58928615  0.43301908     0.08210
H2349       H  0.21812606  0.63236636  0.45213320     0.08210
H2350       H  0.17829313  0.65789590  0.28340712     0.08190
H2351       H  0.21672673  0.68350323  0.28340969     0.08190
H2352       H  0.17830463  0.69854626  0.30413069     0.04970
C2353       C  0.10983087  0.73094971  0.55461988    -0.20840
C2354       C  0.08360830  0.73157420  0.53029867    -0.07400
C2355       C  0.06965553  0.76404145  0.52141429     0.13470
C2356       C  0.08263138  0.79432259  0.53627427    -0.20890
C2357       C  0.10804966  0.79338717  0.56158138    -0.07410
C2358       C  0.12287979  0.76110601  0.56947998     0.13460
C2359       C  0.15368928  0.75783962  0.59201564    -0.24240
H2360       H  0.12096901  0.70652190  0.56126165     0.14740
H2361       H  0.07017541  0.81860890  0.53076728     0.14770
C2362       C  0.03885832  0.76778277  0.49908335    -0.24190
H2363       H  0.17677134  0.76223517  0.57607998     0.04980
H2364       H  0.15313599  0.77656910  0.61316559     0.08210
H2365       H  0.15539670  0.73187842  0.60360394     0.08210
H2366       H  0.02813751  0.74257461  0.49156731     0.08190
H2367       H  0.04580531  0.78364059  0.47659746     0.08190
H2368       H  0.01856601  0.78196154  0.51302935     0.04970
C2369       C  0.12853974  0.74135630  0.37252530    -0.20840
C2370       C  0.09687000  0.73345676  0.38754550    -0.07400
C2371       C  0.07486143  0.76059597  0.39641085     0.13470
C2372       C  0.08349350  0.79450100  0.38650347    -0.20890
C2373       C  0.11324245  0.80128832  0.36665308    -0.07410
C2374       C  0.13770619  0.77474730  0.36398283     0.13460
C2375       C  0.17380645  0.78052045  0.35278209    -0.24240
H2376       H  0.14681962  0.72090717  0.36764668     0.14740
H2377       H  0.06486004  0.81483473  0.39013395     0.14770
C2378       C  0.04215953  0.75320502  0.41505410    -0.24190
H2379       H  0.18854034  0.75640231  0.35321678     0.04980
H2380       H  0.18658273  0.79734703  0.37169011     0.08210
H2381       H  0.17493954  0.79084763  0.32640545     0.08210
H2382       H  0.04846488  0.73948550  0.43886867     0.08190
H2383       H  0.02588775  0.73549227  0.40023545     0.08190
H2384       H  0.02736362  0.77695103  0.42054215     0.04970
C2385       C  0.89376626  0.62601110  0.70877830    -0.20840
C2386       C  0.87248754  0.62831049  0.67968889    -0.07400
C2387       C  0.83873703  0.64007324  0.68386864     0.13470
C2388       C  0.82696743  0.64902718  0.71630923    -0.20890
C2389       C  0.84684224  0.64311231  0.74553015    -0.07410
C2390       C  0.88112844  0.63247504  0.74192135     0.13460
C2391       C  0.90405502  0.62591366  0.77221191    -0.24240
H2392       H  0.92014213  0.61825945  0.70580636     0.14740
H2393       H  0.80055928  0.65725091  0.71930315     0.14770
C2394       C  0.81315421  0.64033662  0.65550053    -0.24190
H2395       H  0.91240731  0.59868645  0.77199531     0.04980
H2396       H  0.89118353  0.63071235  0.79713209     0.08210
H2397       H  0.92683429  0.64276848  0.77058234     0.08210
H2398       H  0.79328013  0.62195653  0.66294198     0.08190
H2399       H  0.82402111  0.63267934  0.63026042     0.08190
H2400       H  0.80048409  0.66568201  0.65376631     0.04970
C2401       C  0.03624148  0.78830760  0.59754967    -0.20840
C2402       C  0.06440302  0.79141324  0.61922257    -0.07400
C2403       C  0.07751858  0.76172399  0.63519694     0.13470
C2404       C  0.06432981  0.72913875  0.62612046    -0.20890
C2405       C  0.03711070  0.72580228  0.60256152    -0.07410
C2406       C  0.02197937  0.75631358  0.59001763     0.13460
C2407       C  0.98868052  0.75582603  0.57148814    -0.24240
H2408       H  0.02609686  0.81116645  0.58535130     0.14740
H2409       H  0.07464077  0.70635787  0.63820909     0.14770
C2410       C  0.10491908  0.76468575  0.66218409    -0.24190
H2411       H  0.98243208  0.78107538  0.55990679     0.04980
H2412       H  0.96886041  0.75069836  0.59097449     0.08210
H2413       H  0.98875076  0.73604305  0.55093138     0.08210
H2414       H  0.09266039  0.76873843  0.68754756     0.08190
H2415       H  0.12155756  0.78723671  0.65821581     0.08190
H2416       H  0.12140456  0.74143377  0.66258185     0.04970
C2417       C  0.90224280  0.76156105  0.56890449    -0.20840
C2418       C  0.88460739  0.73237099  0.58038523    -0.07400
C2419       C  0.85526518  0.73739487  0.60097457     0.13470
C2420       C  0.84518648  0.77067051  0.61046817    -0.20890
C2421       C  0.86198901  0.79966621  0.59768019    -0.07410
C2422       C  0.89204289  0.79492996  0.57799128     0.13460
C2423       C  0.91406511  0.82421282  0.56636973    -0.24240
H2424       H  0.92429772  0.75816956  0.55248713     0.14740
H2425       H  0.82191289  0.77429533  0.62529120     0.14770
C2426       C  0.83393845  0.70802880  0.61263288    -0.24190
H2427       H  0.93887036  0.82321409  0.58011642     0.04980
H2428       H  0.90196180  0.84927513  0.57150312     0.08210
H2429       H  0.91919042  0.82220890  0.53837545     0.08210
H2430       H  0.84870190  0.69333947  0.63158148     0.08190
H2431       H  0.82693412  0.69162295  0.59044195     0.08190
H2432       H  0.80992069  0.71690734  0.62514200     0.04970
C2433       C  0.03365229  0.66867248  0.69931252    -0.20840
C2434       C  0.01543495  0.63793693  0.69931173    -0.07400
C2435       C  0.01224490  0.61961612  0.73039147     0.13470
C2436       C  0.03183042  0.62996751  0.75895158    -0.20890
C2437       C  0.05392039  0.65847443  0.75707654    -0.07410
C2438       C  0.05219082  0.67953400  0.72777295     0.13460
C2439       C  0.07084238  0.71265545  0.72446090    -0.24240
H2440       H  0.03387874  0.68447192  0.67662425     0.14740
H2441       H  0.03191149  0.61420291  0.78187669     0.14770
C2442       C  0.98946536  0.58884491  0.73393423    -0.24190
H2443       H  0.05234374  0.73430835  0.72380112     0.04980
H2444       H  0.08562742  0.71218718  0.70039696     0.08210
H2445       H  0.08908156  0.71645950  0.74527155     0.08210
H2446       H  0.97639456  0.58209911  0.70961514     0.08190
H2447       H  0.96983148  0.59411920  0.75380390     0.08190
H2448       H  0.00467755  0.56641633  0.74237187     0.04970
C2449       C  0.69680185  0.43751665  0.57659406    -0.20840
C2450       C  0.72240616  0.42409101  0.59820627    -0.07400
C2451       C  0.71211315  0.40406287  0.62680493     0.13470
C2452       C  0.67795789  0.39630745  0.63154986    -0.20890
C2453       C  0.65305211  0.40522314  0.60782060    -0.07410
C2454       C  0.66205139  0.42839138  0.58133521     0.13460
C2455       C  0.63479775  0.44399347  0.55910485    -0.24240
H2456       H  0.70377537  0.45575319  0.55680719     0.14740
H2457       H  0.67221448  0.37858635  0.65127387     0.14770
C2458       C  0.73637511  0.38782072  0.65205048    -0.24190
H2459       H  0.64593509  0.46080925  0.53900509     0.04980
H2460       H  0.61730455  0.45958081  0.57537870     0.08210
H2461       H  0.61956762  0.42382189  0.54640467     0.08210
H2462       H  0.76287529  0.39581821  0.64776702     0.08190
H2463       H  0.73500598  0.35951051  0.65016584     0.08190
H2464       H  0.72863197  0.39432726  0.67865852     0.04970
C2465       C  0.69048387  0.54992351  0.56560484    -0.20840
C2466       C  0.71952000  0.56481486  0.58110429    -0.07400
C2467       C  0.71352433  0.58780993  0.60879414     0.13470
C2468       C  0.68033320  0.59712634  0.61829876    -0.20890
C2469       C  0.65234899  0.58660437  0.59920539    -0.07410
C2470       C  0.65699404  0.56041698  0.57456263     0.13460
C2471       C  0.62672366  0.54172514  0.56007171    -0.24240
H2472       H  0.69399434  0.52924716  0.54726138     0.14740
H2473       H  0.67674036  0.61685776  0.63764167     0.14770
C2474       C  0.74119841  0.60423835  0.62876423    -0.24190
H2475       H  0.63421179  0.52502436  0.53816270     0.04980
H2476       H  0.60658703  0.55970238  0.55141069     0.08210
H2477       H  0.61562088  0.52532339  0.58047328     0.08210
H2478       H  0.76547856  0.60424439  0.61441234     0.08190
H2479       H  0.74356791  0.59077228  0.65320426     0.08190
H2480       H  0.73460912  0.63117592  0.63526965     0.04970
C2481       C  0.78333508  0.55968606  0.70037534    -0.20840
C2482       C  0.81689610  0.55871232  0.68777845    -0.07400
C2483       C  0.84245286  0.55895023  0.71311765     0.13470
C2484       C  0.83354593  0.57085310  0.74686618    -0.20890
C2485       C  0.80109100  0.58677157  0.75373417    -0.07410
C2486       C  0.77489842  0.57813494  0.72978240     0.13460
C2487       C  0.73893794  0.59091270  0.73027726    -0.24240
H2488       H  0.76271091  0.54971750  0.68488997     0.14740
H2489       H  0.85329395  0.57227407  0.76621593     0.14770
C2490       C  0.87765722  0.54548251  0.70522885    -0.24190
H2491       H  0.72408287  0.57734651  0.75014268     0.04980
H2492       H  0.74006848  0.61899064  0.73172033     0.08210
H2493       H  0.72447040  0.58531933  0.70650125     0.08210
H2494       H  0.88933165  0.55978069  0.68362831     0.08190
H2495       H  0.87594793  0.51811830  0.69762725     0.08190
H2496       H  0.89468653  0.54749538  0.72791337     0.04970
C2497       C  0.84354080  0.44667253  0.72649791    -0.20840
C2498       C  0.81761106  0.44335987  0.70193254    -0.07400
C2499       C  0.78569377  0.43165568  0.71375225     0.13470
C2500       C  0.78554084  0.40823306  0.74040198    -0.20890
C2501       C  0.81226315  0.40800912  0.76419163    -0.07410
C2502       C  0.83939791  0.43158576  0.75920148     0.13460
C2503       C  0.86167153  0.44339770  0.78818928    -0.24240
H2504       H  0.86599742  0.46182118  0.72083060     0.14740
H2505       H  0.76385733  0.39162519  0.74294112     0.14770
C2506       C  0.75306105  0.45145124  0.70748875    -0.24190
H2507       H  0.88857007  0.44546743  0.77968428     0.04980
H2508       H  0.85353015  0.46962725  0.79584217     0.08210
H2509       H  0.85968533  0.42642589  0.81096777     0.08210
H2510       H  0.74458431  0.45025854  0.68086672     0.08190
H2511       H  0.75699244  0.47880018  0.71443113     0.08190
H2512       H  0.73173283  0.44170740  0.72368243     0.04970
C2513       C  0.70539134  0.61660431  0.51757977    -0.20840
C2514       C  0.73170912  0.63088418  0.53760798    -0.07400
C2515       C  0.72265766  0.65417741  0.56417916     0.13470
C2516       C  0.68806894  0.65871568  0.57294239    -0.20890
C2517       C  0.66179735  0.64263654  0.55436568    -0.07410
C2518       C  0.67060234  0.62333345  0.52497141     0.13460
C2519       C  0.64334926  0.61137939  0.50067774    -0.24240
H2520       H  0.71204389  0.60160780  0.49508130     0.14740
H2521       H  0.68143405  0.67373216  0.59548038     0.14770
C2522       C  0.74958587  0.67383530  0.58397052    -0.24190
H2523       H  0.65379720  0.59338825  0.48119303     0.04980
H2524       H  0.63208337  0.63400577  0.48755083     0.08210
H2525       H  0.62261277  0.59815440  0.51445514     0.08210
H2526       H  0.76373080  0.69140300  0.56726914     0.08190
H2527       H  0.76926281  0.65646433  0.59439364     0.08190
H2528       H  0.73832536  0.68910462  0.60532042     0.04970
C2529       C  0.68679657  0.62308700  0.40856592    -0.20840
C2530       C  0.71954438  0.62776617  0.39418199    -0.07400
C2531       C  0.72283025  0.64384507  0.36172601     0.13470
C2532       C  0.69380156  0.65776832  0.34671752    -0.20890
C2533       C  0.66114215  0.64943500  0.35869802    -0.07410
C2534       C  0.65727469  0.63247846  0.39030911     0.13460
C2535       C  0.62234941  0.62378135  0.40397150    -0.24240
H2536       H  0.68444878  0.61134657  0.43358785     0.14740
H2537       H  0.69618058  0.67163409  0.32274337     0.14770
C2538       C  0.75631751  0.64631068  0.34186560    -0.24190
H2539       H  0.62389018  0.60909067  0.42827401     0.04980
H2540       H  0.60828147  0.60790782  0.38505509     0.08210
H2541       H  0.60769182  0.64772505  0.40888916     0.08210
H2542       H  0.76781741  0.62081298  0.33784778     0.08190
H2543       H  0.77556055  0.66154168  0.35516010     0.08190
H2544       H  0.75310823  0.65844004  0.31645387     0.04970
C2545       C  0.83200989  0.75440034  0.39978235    -0.20840
C2546       C  0.81067018  0.72894931  0.38571587    -0.07400
C2547       C  0.78409256  0.74038949  0.36360854     0.13470
C2548       C  0.78787781  0.77130481  0.34693560    -0.20890
C2549       C  0.80934639  0.79655610  0.35939589    -0.07410
C2550       C  0.82952242  0.78891965  0.38855357     0.13460
C2551       C  0.84647930  0.81654819  0.40909239    -0.24240
H2552       H  0.84914520  0.74783551  0.42061304     0.14740
H2553       H  0.77401641  0.77526363  0.32358311     0.14770
C2554       C  0.74945251  0.72449246  0.35899440    -0.24190
H2555       H  0.83191721  0.81993117  0.43330760     0.04980
H2556       H  0.84676808  0.84149442  0.39538285     0.08210
H2557       H  0.87289381  0.80886403  0.41589058     0.08210
H2558       H  0.72967386  0.74421251  0.36411206     0.08190
H2559       H  0.74307402  0.70456635  0.37762190     0.08190
H2560       H  0.74625671  0.71566625  0.33212073     0.04970
C2561       C  0.84588972  0.76425784  0.50860498    -0.20840
C2562       C  0.82566202  0.73617618  0.51936094    -0.07400
C2563       C  0.79384003  0.74531397  0.53439866     0.13470
C2564       C  0.79253762  0.77488484  0.55419740    -0.20890
C2565       C  0.81298474  0.80299758  0.54564022    -0.07410
C2566       C  0.83783040  0.79818736  0.51955072     0.13460
C2567       C  0.85469398  0.82869009  0.50320937    -0.24240
H2568       H  0.86652700  0.75999319  0.49045128     0.14740
H2569       H  0.77498032  0.77554717  0.57543063     0.14770
C2570       C  0.76011986  0.73720571  0.51726114    -0.24190
H2571       H  0.87483271  0.82077168  0.48463535     0.04980
H2572       H  0.86605873  0.84571914  0.52275473     0.08210
H2573       H  0.83503967  0.84392707  0.48944028     0.08210
H2574       H  0.74002944  0.73057844  0.53621869     0.08190
H2575       H  0.76192372  0.71755722  0.49703717     0.08190
H2576       H  0.75088661  0.76059793  0.50378533     0.04970
C2577       C  0.00739990  0.62801551  0.19418017    -0.20840
C2578       C  0.02356310  0.63771278  0.22504384    -0.07400
C2579       C  0.05463219  0.65590143  0.22324987     0.13470
C2580       C  0.07033367  0.66100268  0.19152195    -0.20890
C2581       C  0.05576642  0.64855378  0.16128796    -0.07410
C2582       C  0.02314835  0.63347223  0.16218495     0.13460
C2583       C  0.00571744  0.62223916  0.12970056    -0.24240
H2584       H  0.98240919  0.61609118  0.19516481     0.14740
H2585       H  0.09539855  0.67278981  0.19045561     0.14770
C2586       C  0.07096427  0.67105354  0.25436727    -0.24190
H2587       H  0.00040527  0.64499110  0.11352072     0.04980
H2588       H  0.98108162  0.60939008  0.13521088     0.08210
H2589       H  0.02215484  0.60405172  0.11514312     0.08210
H2590       H  0.07654124  0.65089509  0.27367808     0.08190
H2591       H  0.05288312  0.69026796  0.26460324     0.08190
H2592       H  0.09532571  0.68429515  0.24823950     0.04970
C2593       C  0.86306253  0.67595094  0.17689054    -0.20840
C2594       C  0.86422786  0.64802836  0.15487231    -0.07400
C2595       C  0.88430550  0.61935510  0.16438222     0.13470
C2596       C  0.89479122  0.61574433  0.19899111    -0.20890
C2597       C  0.88955082  0.64254231  0.22279695    -0.07410
C2598       C  0.87774241  0.67499969  0.20935283     0.13460
C2599       C  0.87884080  0.71024951  0.22616313    -0.24240
H2600       H  0.84871337  0.69854830  0.16963994     0.14740
H2601       H  0.90756300  0.59241400  0.20708062     0.14770
C2602       C  0.89532961  0.59327737  0.13802389    -0.24190
H2603       H  0.85237603  0.71944865  0.23099539     0.04980
H2604       H  0.89079843  0.72853227  0.20785079     0.08210
H2605       H  0.89388699  0.71362081  0.24962418     0.08210
H2606       H  0.92361266  0.59262549  0.13670244     0.08190
H2607       H  0.88558766  0.59957282  0.11202228     0.08190
H2608       H  0.88639962  0.56743980  0.14486573     0.04970
C2609       C  0.06597418  0.72907930  0.31733203    -0.20840
C2610       C  0.03359409  0.72880345  0.33255447    -0.07400
C2611       C  0.01592895  0.76025687  0.33714643     0.13470
C2612       C  0.03154194  0.79108795  0.32826945    -0.20890
C2613       C  0.06415771  0.79102553  0.31390671    -0.07410
C2614       C  0.08036382  0.75966488  0.30563131     0.13460
C2615       C  0.11169535  0.75832269  0.28306185    -0.24240
H2616       H  0.07935881  0.70508784  0.31324015     0.14740
H2617       H  0.01898275  0.81528476  0.33405560     0.14770
C2618       C  0.98074346  0.76212139  0.35195003    -0.24190
H2619       H  0.12252213  0.73199981  0.28144278     0.04980
H2620       H  0.13181301  0.77558325  0.29256766     0.08210
H2621       H  0.10466086  0.76652379  0.25676176     0.08210
H2622       H  0.97278159  0.73731070  0.36316286     0.08190
H2623       H  0.96311290  0.76984413  0.33110889     0.08190
H2624       H  0.97972564  0.78142982  0.37294893     0.04970
C2625       C  0.89556339  0.75961869  0.34403541    -0.20840
C2626       C  0.87984957  0.72964304  0.33178252    -0.07400
C2627       C  0.85285328  0.73317342  0.30791967     0.13470
C2628       C  0.84437733  0.76617150  0.29529957    -0.20890
C2629       C  0.85973906  0.79613285  0.30854499    -0.07410
C2630       C  0.88687076  0.79238119  0.33209052     0.13460
C2631       C  0.90615557  0.82267741  0.34632886    -0.24240
H2632       H  0.91488987  0.75729053  0.36365258     0.14740
H2633       H  0.82252326  0.76900235  0.27845666     0.14770
C2634       C  0.83093117  0.70295898  0.29802073    -0.24190
H2635       H  0.93233040  0.82307746  0.33534798     0.04980
H2636       H  0.89339086  0.84741738  0.34076526     0.08210
H2637       H  0.90902381  0.82064888  0.37446819     0.08210
H2638       H  0.82007233  0.69104991  0.32143979     0.08190
H2639       H  0.84581251  0.68327882  0.28409717     0.08190
H2640       H  0.80930657  0.71080037  0.28131307     0.04970
C2641       C  0.72677111  0.58679884  0.29872155    -0.20840
C2642       C  0.72648429  0.56591860  0.32764188    -0.07400
C2643       C  0.69488167  0.55926880  0.34393262     0.13470
C2644       C  0.66495968  0.57579365  0.33197090    -0.20890
C2645       C  0.66638150  0.60066905  0.30567127    -0.07410
C2646       C  0.69823116  0.60552787  0.28878308     0.13460
C2647       C  0.70508690  0.63281334  0.26299473    -0.24240
H2648       H  0.75051991  0.59088381  0.28505706     0.14740
H2649       H  0.64100443  0.57182156  0.34537260     0.14770
C2650       C  0.69314943  0.53664074  0.37509653    -0.24190
H2651       H  0.73032272  0.64496435  0.26693719     0.04980
H2652       H  0.68649461  0.65384211  0.26538646     0.08210
H2653       H  0.70639719  0.62015785  0.23761390     0.08210
H2654       H  0.70964099  0.54734916  0.39562693     0.08190
H2655       H  0.70228549  0.51061187  0.36857780     0.08190
H2656       H  0.66666230  0.53464677  0.38525121     0.04970
C2657       C  0.69978935  0.43748847  0.33510620    -0.20840
C2658       C  0.72608467  0.42366030  0.31458175    -0.07400
C2659       C  0.71668444  0.40302058  0.28576740     0.13470
C2660       C  0.68273330  0.39287515  0.28196933    -0.20890
C2661       C  0.65687367  0.40453754  0.30399180    -0.07410
C2662       C  0.66511161  0.42970594  0.32867173     0.13460
C2663       C  0.63712507  0.44871079  0.34731915    -0.24240
H2664       H  0.70630726  0.45526749  0.35530766     0.14740
H2665       H  0.67767889  0.37215451  0.26435467     0.14770
C2666       C  0.74144863  0.38868415  0.25931386    -0.24190
H2667       H  0.64755564  0.46619133  0.36722395     0.04980
H2668       H  0.61906623  0.43072486  0.35962844     0.08210
H2669       H  0.62250511  0.46429518  0.32851795     0.08210
H2670       H  0.76856369  0.39496094  0.26414783     0.08190
H2671       H  0.73426780  0.39805241  0.23341915     0.08190
H2672       H  0.73952905  0.36031348  0.25848963     0.04970
C2673       C  0.80678344  0.60944789  0.22643202    -0.20840
C2674       C  0.82289804  0.57747347  0.22863351    -0.07400
C2675       C  0.82960207  0.55898470  0.19794905     0.13470
C2676       C  0.81923610  0.57253912  0.16612721    -0.20890
C2677       C  0.80619478  0.60596302  0.16363806    -0.07410
C2678       C  0.79976433  0.62466637  0.19463455     0.13460
C2679       C  0.78670779  0.66120574  0.19563894    -0.24240
H2680       H  0.80015945  0.62303564  0.24989872     0.14740
H2681       H  0.82498893  0.55847278  0.14275189     0.14770
C2682       C  0.84898934  0.52560075  0.19780730    -0.24190
H2683       H  0.80329449  0.67709898  0.21231858     0.04980
H2684       H  0.76064357  0.66176387  0.20699958     0.08210
H2685       H  0.78612001  0.67347868  0.16998288     0.08210
H2686       H  0.83174034  0.50446037  0.19012164     0.08190
H2687       H  0.86103529  0.52040902  0.22295675     0.08190
H2688       H  0.87034553  0.52633572  0.17917743     0.04970
C2689       C  0.85624758  0.42832017  0.19959831    -0.20840
C2690       C  0.82757730  0.43572852  0.22029996    -0.07400
C2691       C  0.79550522  0.43728772  0.20287804     0.13470
C2692       C  0.79134335  0.41893182  0.17248086    -0.20890
C2693       C  0.81914768  0.40605422  0.15385029    -0.07410
C2694       C  0.85201763  0.41662290  0.16523666     0.13460
C2695       C  0.88112119  0.42006504  0.14005402    -0.24240
H2696       H  0.88155417  0.43408628  0.20921754     0.14740
H2697       H  0.76579443  0.41556991  0.16405176     0.14770
C2698       C  0.76633740  0.46130058  0.21246884    -0.24190
H2699       H  0.90558329  0.42565954  0.15331985     0.04980
H2700       H  0.87536488  0.44166771  0.12241958     0.08210
H2701       H  0.88449107  0.39696151  0.12395264     0.08210
H2702       H  0.77536902  0.48813749  0.21448199     0.08190
H2703       H  0.75324631  0.45367091  0.23603312     0.08190
H2704       H  0.74611875  0.46168169  0.19246077     0.04970
C2705       C  0.20829747  0.43846435  0.33381841    -0.20840
C2706       C  0.17878802  0.42019154  0.32456783    -0.07400
C2707       C  0.18261475  0.39041649  0.30424380     0.13470
C2708       C  0.21556360  0.37872553  0.29562994    -0.20890
C2709       C  0.24519780  0.39514483  0.30771660    -0.07410
C2710       C  0.24139680  0.42625584  0.32596886     0.13460
C2711       C  0.27208891  0.44641832  0.33742711    -0.24240
H2712       H  0.20527768  0.46291131  0.34655377     0.14740
H2713       H  0.21813347  0.35541396  0.28085628     0.14770
C2714       C  0.15179171  0.37072949  0.29186433    -0.24190
H2715       H  0.26455637  0.46939285  0.35259497     0.04980
H2716       H  0.28659593  0.45525432  0.31462680     0.08210
H2717       H  0.28905039  0.43037553  0.35360163     0.08210
H2718       H  0.13556011  0.38706082  0.27521910     0.08190
H2719       H  0.13629092  0.36229994  0.31421832     0.08190
H2720       H  0.15927797  0.34760247  0.27688538     0.04970
C2721       C  0.19157968  0.58703022  0.28851047    -0.20840
C2722       C  0.19134307  0.56988743  0.32009628    -0.07400
C2723       C  0.22266908  0.56466617  0.33713270     0.13470
C2724       C  0.25220522  0.58101992  0.32462063    -0.20890
C2725       C  0.25092836  0.60214567  0.29525596    -0.07410
C2726       C  0.22112986  0.60226975  0.27527938     0.13460
C2727       C  0.21972808  0.61987734  0.24094555    -0.24240
H2728       H  0.16863031  0.58818024  0.27378118     0.14740
H2729       H  0.27538209  0.58039514  0.33980816     0.14770
C2730       C  0.22449010  0.54347575  0.36931424    -0.24190
H2731       H  0.23150354  0.64561575  0.24190974     0.04980
H2732       H  0.23335975  0.60387633  0.22170205     0.08210
H2733       H  0.19301503  0.62363545  0.23235228     0.08210
H2734       H  0.21842968  0.51648010  0.36329005     0.08190
H2735       H  0.20553902  0.55305880  0.38827525     0.08190
H2736       H  0.25031808  0.54426050  0.38106862     0.04970
C2737       C  0.11459684  0.60213850  0.22268768    -0.20840
C2738       C  0.08646679  0.58174768  0.23191968    -0.07400
C2739       C  0.06676900  0.56726112  0.20507325     0.13470
C2740       C  0.07531965  0.57535016  0.17056805    -0.20890
C2741       C  0.10517276  0.59433528  0.16301035    -0.07410
C2742       C  0.12860316  0.59854554  0.18992535     0.13460
C2743       C  0.15998722  0.57570296  0.18953138    -0.24240
H2744       H  0.13080043  0.61216153  0.24264306     0.14740
H2745       H  0.05797008  0.56878521  0.15001466     0.14770
C2746       C  0.03629335  0.54510832  0.21274119    -0.24190
H2747       H  0.15797263  0.55523978  0.16980925     0.04980
H2748       H  0.16375817  0.56214420  0.21436832     0.08210
H2749       H  0.18316920  0.59074005  0.18485879     0.08210
H2750       H  0.01771247  0.55960119  0.22880916     0.08190
H2751       H  0.04428718  0.52175847  0.22679198     0.08190
H2752       H  0.02322235  0.53696665  0.18879944     0.04970
C2753       C  0.07716441  0.44400305  0.18843610    -0.20840
C2754       C  0.09717704  0.43952860  0.21821985    -0.07400
C2755       C  0.13084903  0.42703625  0.21236840     0.13470
C2756       C  0.13693150  0.40580018  0.18426952    -0.20890
C2757       C  0.11408201  0.40399500  0.15717108    -0.07410
C2758       C  0.08627071  0.42735966  0.15725119     0.13460
C2759       C  0.06661863  0.43434262  0.12478630    -0.24240
H2760       H  0.05481035  0.46044863  0.18941048     0.14740
H2761       H  0.16082442  0.39300153  0.18249892     0.14770
C2762       C  0.16229295  0.44334689  0.22738177    -0.24190
H2763       H  0.04481583  0.45206724  0.12955068     0.04980
H2764       H  0.05664840  0.41031089  0.11340105     0.08210
H2765       H  0.08397615  0.44639248  0.10571775     0.08210
H2766       H  0.15688469  0.46931343  0.23760048     0.08190
H2767       H  0.18168143  0.44769818  0.20689435     0.08190
H2768       H  0.17426352  0.42627629  0.24650463     0.04970
C2769       C  0.88899486  0.34036887  0.15748064    -0.20840
C2770       C  0.85350007  0.33978849  0.16012165    -0.07400
C2771       C  0.83853712  0.34113010  0.19322178     0.13470
C2772       C  0.85859037  0.35089018  0.22130224    -0.20890
C2773       C  0.89400450  0.35565190  0.21807738    -0.07410
C2774       C  0.90946100  0.34904589  0.18552833     0.13460
C2775       C  0.94677871  0.35457065  0.17835594    -0.24240
H2776       H  0.90062751  0.33832337  0.13247279     0.14740
H2777       H  0.84628073  0.35482685  0.24597173     0.14770
C2778       C  0.80152857  0.33289284  0.19917690    -0.24190
H2779       H  0.95317825  0.35067040  0.15085686     0.04980
H2780       H  0.96294506  0.33657017  0.19327730     0.08210
H2781       H  0.95262877  0.38157471  0.18415962     0.08210
H2782       H  0.79487219  0.30848880  0.18609632     0.08190
H2783       H  0.78547232  0.35394357  0.18972867     0.08190
H2784       H  0.79565563  0.33003953  0.22695526     0.04970
C2785       C  0.89859047  0.23967763  0.33752415    -0.20840
C2786       C  0.88165411  0.26759859  0.32205761    -0.07400
C2787       C  0.85552360  0.26047800  0.29817449     0.13470
C2788       C  0.84510258  0.22674758  0.29258673    -0.20890
C2789       C  0.85916218  0.19943281  0.31093959    -0.07410
C2790       C  0.88778181  0.20548889  0.33198981     0.13460
C2791       C  0.90710402  0.17601176  0.34793395    -0.24240
H2792       H  0.92041132  0.24474694  0.35361828     0.14740
H2793       H  0.82392269  0.22206186  0.27555712     0.14770
C2794       C  0.83931372  0.28842813  0.27735103    -0.24190
H2795       H  0.93220249  0.17311519  0.33497375     0.04980
H2796       H  0.89354729  0.15130254  0.34506584     0.08210
H2797       H  0.91111640  0.18014628  0.37572310     0.08210
H2798       H  0.85914024  0.29870275  0.26011144     0.08190
H2799       H  0.82908107  0.30886179  0.29446837     0.08190
H2800       H  0.81823074  0.27887103  0.26091209     0.04970
C2801       C  0.05099275  0.26609626  0.29786171    -0.20840
C2802       C  0.02827263  0.26478801  0.32581205    -0.07400
C2803       C  0.01690277  0.23201938  0.33688199     0.13470
C2804       C  0.03195004  0.20221959  0.32316907    -0.20890
C2805       C  0.05780521  0.20408573  0.29828201    -0.07410
C2806       C  0.06417930  0.23605344  0.28270500     0.13460
C2807       C  0.08319500  0.23843144  0.24928843    -0.24240
H2808       H  0.05715703  0.29060739  0.28668649     0.14740
H2809       H  0.02603694  0.17755823  0.33458190     0.14770
C2810       C  0.99013175  0.22724103  0.36421492    -0.24190
H2811       H  0.08643137  0.26542693  0.24124687     0.04980
H2812       H  0.06837237  0.22525024  0.22897031     0.08210
H2813       H  0.10861432  0.22642173  0.25117402     0.08210
H2814       H  0.96855554  0.21319055  0.35292246     0.08190
H2815       H  0.98058258  0.25168399  0.37524920     0.08190
H2816       H  0.00050301  0.21139721  0.38542026     0.04970
C2817       C  0.07619902  0.34369768  0.23573351    -0.20840
C2818       C  0.04842589  0.36634429  0.23967146    -0.07400
C2819       C  0.03336624  0.38017574  0.21007962     0.13470
C2820       C  0.04409712  0.36881370  0.17733011    -0.20890
C2821       C  0.07250784  0.34671899  0.17296384    -0.07410
C2822       C  0.08894606  0.33459736  0.20302032     0.13460
C2823       C  0.12061627  0.31276470  0.20065280    -0.24240
H2824       H  0.08775106  0.33273263  0.25847530     0.14740
H2825       H  0.03182309  0.37954170  0.15498752     0.14770
C2826       C  0.00730964  0.40858235  0.21351865    -0.24190
H2827       H  0.13023423  0.30519740  0.22638110     0.04980
H2828       H  0.14103571  0.32756567  0.18802636     0.08210
H2829       H  0.11528073  0.28919171  0.18558388     0.08210
H2830       H  0.01849190  0.43024231  0.22812548     0.08190
H2831       H  0.98475166  0.39983949  0.22815568     0.08190
H2832       H  0.99910801  0.41842073  0.18806915     0.04970
C2833       C  0.34424811  0.44331280  0.69739181    -0.20840
C2834       C  0.31662486  0.44175935  0.72066305    -0.07400
C2835       C  0.28306690  0.44011699  0.70619243     0.13470
C2836       C  0.27950020  0.42947327  0.67232435    -0.20890
C2837       C  0.30751650  0.42067202  0.65207754    -0.07410
C2838       C  0.33925110  0.43458623  0.66236818     0.13460
C2839       C  0.36665840  0.44173986  0.63619678    -0.24240
H2840       H  0.36947298  0.45022403  0.70641856     0.14740
H2841       H  0.25440197  0.42707242  0.66289706     0.14770
C2842       C  0.25011029  0.44882805  0.72516097    -0.24190
H2843       H  0.39079808  0.42865465  0.64259962     0.04980
H2844       H  0.35873217  0.43358933  0.61006146     0.08210
H2845       H  0.37161860  0.46974857  0.63554600     0.08210
H2846       H  0.25176164  0.47445916  0.73716330     0.08190
H2847       H  0.24389716  0.42941742  0.74479777     0.08190
H2848       H  0.22767004  0.44972428  0.70773381     0.04970
C2849       C  0.33746628  0.55601591  0.69591738    -0.20840
C2850       C  0.31152455  0.55924356  0.72068666    -0.07400
C2851       C  0.27936221  0.57141065  0.70922538     0.13470
C2852       C  0.27767283  0.59152194  0.67975175    -0.20890
C2853       C  0.30496625  0.59235295  0.65652412    -0.07410
C2854       C  0.33328138  0.57046128  0.66290126     0.13460
C2855       C  0.35697488  0.55938131  0.63456018    -0.24240
H2856       H  0.36006128  0.54093520  0.70167136     0.14740
H2857       H  0.25515699  0.60694060  0.67556413     0.14770
C2858       C  0.24657560  0.56201780  0.72678226    -0.24190
H2859       H  0.38377148  0.55968964  0.64342095     0.04980
H2860       H  0.35098957  0.53245413  0.62757265     0.08210
H2861       H  0.35415591  0.57542564  0.61120376     0.08210
H2862       H  0.24771190  0.57057891  0.75338078     0.08190
H2863       H  0.24316807  0.53382466  0.72615309     0.08190
H2864       H  0.22390913  0.57358301  0.71413359     0.04970
C2865       C  0.20241890  0.42984878  0.84363799    -0.20840
C2866       C  0.23383191  0.41552827  0.83230671    -0.07400
C2867       C  0.23298488  0.38802913  0.80859810     0.13470
C2868       C  0.20135131  0.37427487  0.79962565    -0.20890
C2869       C  0.17017256  0.38900700  0.81022167    -0.07410
C2870       C  0.17086067  0.41821668  0.83125673     0.13460
C2871       C  0.13834359  0.43684142  0.84071690    -0.24240
H2872       H  0.20265206  0.45143251  0.86117813     0.14740
H2873       H  0.20122033  0.35038521  0.78554223     0.14770
C2874       C  0.26439492  0.37252582  0.79197231    -0.24190
H2875       H  0.14323311  0.45845367  0.85862252     0.04980
H2876       H  0.11988083  0.41920470  0.85306578     0.08210
H2877       H  0.12645225  0.44736104  0.81709283     0.08210
H2878       H  0.28564189  0.36975538  0.81045285     0.08190
H2879       H  0.27286107  0.38783522  0.76993390     0.08190
H2880       H  0.25890085  0.34688531  0.78085283     0.04970
C2881       C  0.16144733  0.57785578  0.82125188    -0.20840
C2882       C  0.16407801  0.60665647  0.79979308    -0.07400
C2883       C  0.19691989  0.61630571  0.78807397     0.13470
C2884       C  0.22592736  0.60237095  0.80382291    -0.20890
C2885       C  0.22363628  0.57463302  0.82635777    -0.07410
C2886       C  0.19083738  0.56085204  0.83336556     0.13460
C2887       C  0.18683204  0.52787082  0.85297179    -0.24240
H2888       H  0.13638760  0.56979097  0.82996351     0.14740
H2889       H  0.25097430  0.61131815  0.79608471     0.14770
C2890       C  0.20228704  0.64104319  0.75906626    -0.24190
H2891       H  0.15950703  0.52157113  0.85740928     0.04980
H2892       H  0.19964826  0.52964665  0.87824905     0.08210
H2893       H  0.19845253  0.50665027  0.83796340     0.08210
H2894       H  0.17931603  0.65665284  0.75450490     0.08190
H2895       H  0.20847509  0.62672653  0.73527371     0.08190
H2896       H  0.22409241  0.65830659  0.76438784     0.04970
C2897       C  0.16973495  0.63023521  0.87901011    -0.20840
C2898       C  0.16643631  0.65466895  0.85291674    -0.07400
C2899       C  0.19573360  0.67221809  0.84084579     0.13470
C2900       C  0.22783699  0.66329482  0.85386980    -0.20890
C2901       C  0.23139107  0.63822842  0.87941206    -0.07410
C2902       C  0.20204410  0.62163051  0.89207678     0.13460
C2903       C  0.20506896  0.59453105  0.91902072    -0.24240
H2904       H  0.14729365  0.61633071  0.88748093     0.14740
H2905       H  0.25038494  0.67552414  0.84362724     0.14770
C2906       C  0.19317608  0.70021312  0.81401215    -0.24190
H2907       H  0.18001081  0.58237347  0.92448212     0.04980
H2908       H  0.21494006  0.60654281  0.94264619     0.08210
H2909       H  0.22324214  0.57432246  0.91048335     0.08210
H2910       H  0.18739234  0.72502290  0.82650340     0.08190
H2911       H  0.17267637  0.69547149  0.79517103     0.08190
H2912       H  0.21753166  0.70325214  0.79970502     0.04970
C2913       C  0.22681692  0.65728045  0.05398767    -0.20840
C2914       C  0.23063528  0.62739136  0.03407284    -0.07400
C2915       C  0.20086671  0.60849129  0.02607920     0.13470
C2916       C  0.16894810  0.61871454  0.03947544    -0.20890
C2917       C  0.16530688  0.64784993  0.06055148    -0.07410
C2918       C  0.19449694  0.66868657  0.06569956     0.13460
C2919       C  0.19200682  0.70324070  0.08287347    -0.24240
H2920       H  0.24910366  0.67294696  0.05879433     0.14740
H2921       H  0.14698779  0.60231181  0.03541469     0.14770
C2922       C  0.20203836  0.57636055  0.00478103    -0.24190
H2923       H  0.21765886  0.71378152  0.08890086     0.04980
H2924       H  0.17962567  0.72153176  0.06504651     0.08210
H2925       H  0.17721790  0.70175178  0.10715213     0.08210
H2926       H  0.22787750  0.57055533  0.99444830     0.08190
H2927       H  0.18345037  0.57849698  0.98355562     0.08190
H2928       H  0.19391589  0.55446524  0.02054301     0.04970
C2929       C  0.29535122  0.73422724  0.87542114    -0.20840
C2930       C  0.32625911  0.73312610  0.89279441    -0.07400
C2931       C  0.34337095  0.76461167  0.89829694     0.13470
C2932       C  0.33091265  0.79509257  0.88241867    -0.20890
C2933       C  0.30128134  0.79500165  0.86143939    -0.07410
C2934       C  0.28236802  0.76419855  0.86054715     0.13460
C2935       C  0.24927037  0.76127750  0.84229734    -0.24240
H2936       H  0.28074723  0.71103778  0.87386225     0.14740
H2937       H  0.34590906  0.81835973  0.88393245     0.14770
C2938       C  0.37542138  0.76568485  0.91946339    -0.24190
H2939       H  0.24053615  0.73467588  0.84277049     0.04980
H2940       H  0.25215198  0.76888895  0.81509311     0.08210
H2941       H  0.22967663  0.77596833  0.85648473     0.08210
H2942       H  0.39491063  0.74826063  0.90804642     0.08190
H2943       H  0.36978090  0.75734715  0.94612380     0.08190
H2944       H  0.38627494  0.79195979  0.92051768     0.04970
C2945       C  0.35407465  0.75772358  0.02193516    -0.20840
C2946       C  0.32479485  0.73694903  0.01937856    -0.07400
C2947       C  0.29266218  0.75475135  0.01872636     0.13470
C2948       C  0.29030914  0.78840595  0.03126684    -0.20890
C2949       C  0.31898776  0.80689303  0.04191453    -0.07410
C2950       C  0.35118302  0.79308122  0.03100408     0.13460
C2951       C  0.38238101  0.81541529  0.02825805    -0.24240
H2952       H  0.37909169  0.74649591  0.01756904     0.14740
H2953       H  0.26521129  0.79854003  0.03413549     0.14770
C2954       C  0.25990940  0.73936069  0.00499044    -0.24190
H2955       H  0.39012714  0.81710190  0.00085442     0.04980
H2956       H  0.40412959  0.80425938  0.04261643     0.08210
H2957       H  0.37733414  0.84182880  0.03774693     0.08210
H2958       H  0.25012976  0.71943920  0.02258111     0.08190
H2959       H  0.26430536  0.72870722  0.97887825     0.08190
H2960       H  0.23914801  0.75873517  0.00252897     0.04970
C2961       C  0.32881912  0.43424597  0.25792790    -0.20840
C2962       C  0.30301614  0.40906900  0.25747987    -0.07400
C2963       C  0.28626550  0.40298202  0.22591317     0.13470
C2964       C  0.29894497  0.41790611  0.19555356    -0.20890
C2965       C  0.32792607  0.43895076  0.19517227    -0.07410
C2966       C  0.34200034  0.44857599  0.22724487     0.13460
C2967       C  0.37299390  0.47129885  0.22902669    -0.24240
H2968       H  0.34135769  0.43975572  0.28205285     0.14740
H2969       H  0.28650248  0.41215571  0.17171600     0.14770
C2970       C  0.25703381  0.37831570  0.22300228    -0.24190
H2971       H  0.38176266  0.47501360  0.25588528     0.04980
H2972       H  0.36727420  0.49674928  0.21814538     0.08210
H2973       H  0.39428200  0.45964138  0.21411084     0.08210
H2974       H  0.26160411  0.35467249  0.23809188     0.08190
H2975       H  0.25358789  0.37022447  0.19605677     0.08190
H2976       H  0.23317603  0.39122172  0.23142175     0.04970
C2977       C  0.29591643  0.63193541  0.20803658    -0.20840
C2978       C  0.30284420  0.61452654  0.23900087    -0.07400
C2979       C  0.31965323  0.58250580  0.23772831     0.13470
C2980       C  0.32999115  0.56954028  0.20582686    -0.20890
C2981       C  0.32527784  0.58805003  0.17530965    -0.07410
C2982       C  0.30856250  0.61997086  0.17647459     0.13460
C2983       C  0.30631700  0.64241974  0.14491797    -0.24240
H2984       H  0.28309714  0.65652370  0.20894650     0.14740
H2985       H  0.34084450  0.54413104  0.20447404     0.14770
C2986       C  0.32787246  0.56182830  0.26932972    -0.24190
H2987       H  0.29117054  0.66609213  0.14984570     0.04980
H2988       H  0.29523014  0.62875353  0.12288400     0.08210
H2989       H  0.33229582  0.65002033  0.13669835     0.08210
H2990       H  0.32016207  0.57490417  0.29339748     0.08190
H2991       H  0.35583966  0.55703659  0.27054563     0.08190
H2992       H  0.31450893  0.53676763  0.26804418     0.04970
C2993       C  0.22423227  0.59301223  0.11281421    -0.20840
C2994       C  0.22060741  0.56193282  0.09529539    -0.07400
C2995       C  0.18736354  0.54750487  0.09260652     0.13470
C2996       C  0.15900452  0.56743940  0.10117180    -0.20890
C2997       C  0.16317150  0.60011595  0.11481034    -0.07410
C2998       C  0.19603844  0.61200462  0.12349746     0.13460
C2999       C  0.20205450  0.64393845  0.14455830    -0.24240
H3000       H  0.24921940  0.60201023  0.11923410     0.14740
H3001       H  0.13342197  0.55827777  0.09572233     0.14770
C3002       C  0.18077117  0.51192814  0.08007220    -0.24190
H3003       H  0.21913459  0.66176271  0.13064827     0.04980
H3004       H  0.21546494  0.63710005  0.16863969     0.08210
H3005       H  0.17783542  0.65716693  0.15149953     0.08210
H3006       H  0.19306133  0.49312924  0.09746480     0.08190
H3007       H  0.19039181  0.50989211  0.05359861     0.08190
H3008       H  0.15308815  0.50564626  0.07945933     0.04970
C3009       C  0.23662157  0.38932892  0.12022079    -0.20840
C3010       C  0.24209220  0.41380756  0.09440311    -0.07400
C3011       C  0.21374572  0.42637547  0.07624965     0.13470
C3012       C  0.18036312  0.41544307  0.08522325    -0.20890
C3013       C  0.17487813  0.38959204  0.11008688    -0.07410
C3014       C  0.20388593  0.37671708  0.12815132     0.13460
C3015       C  0.20178201  0.34752469  0.15375693    -0.24240
H3016       H  0.25842205  0.37952809  0.13409214     0.14740
H3017       H  0.15876638  0.42465697  0.07045574     0.14770
C3018       C  0.21952066  0.44953305  0.04584865    -0.24190
H3019       H  0.18091018  0.32960866  0.14739847     0.04980
H3020       H  0.19884366  0.35669003  0.18038110     0.08210
H3021       H  0.22601349  0.33268809  0.15443939     0.08210
H3022       H  0.23580899  0.43676343  0.02645022     0.08190
H3023       H  0.23357988  0.47276258  0.05343032     0.08190
H3024       H  0.19510235  0.45678110  0.03350040     0.04970
C3025       C  0.60005670  0.57941830  0.24582213    -0.20840
C3026       C  0.62053461  0.60886335  0.24505759    -0.07400
C3027       C  0.63438415  0.62044433  0.21337765     0.13470
C3028       C  0.62699931  0.60202023  0.18377832    -0.20890
C3029       C  0.60272340  0.57576562  0.18384271    -0.07410
C3030       C  0.58952929  0.56375158  0.21526573     0.13460
C3031       C  0.56410298  0.53502647  0.21661372    -0.24240
H3032       H  0.58940341  0.57097456  0.27011303     0.14740
H3033       H  0.63852821  0.60983819  0.15975846     0.14770
C3034       C  0.65250249  0.65447548  0.20848994    -0.24190
H3035       H  0.55497028  0.53020549  0.24320856     0.04980
H3036       H  0.57636863  0.51134858  0.20710343     0.08210
H3037       H  0.54160749  0.54138814  0.20046105     0.08210
H3038       H  0.67971755  0.65106528  0.20241971     0.08190
H3039       H  0.64924297  0.67211037  0.23053161     0.08190
H3040       H  0.64258374  0.66820953  0.18596025     0.04970
C3041       C  0.61697331  0.39275686  0.22870252    -0.20840
C3042       C  0.59721444  0.40426715  0.25622049    -0.07400
C3043       C  0.57168706  0.42926807  0.24965654     0.13470
C3044       C  0.56521239  0.43976697  0.21544787    -0.20890
C3045       C  0.58440916  0.42683405  0.18748572    -0.07410
C3046       C  0.61145227  0.40392826  0.19522235     0.13460
C3047       C  0.63586829  0.39078324  0.16899750    -0.24240
H3048       H  0.63446286  0.37168698  0.23247723     0.14740
H3049       H  0.54580061  0.45907319  0.21072962     0.14770
C3050       C  0.55160426  0.44577121  0.27822808    -0.24190
H3051       H  0.64190802  0.36326142  0.17337957     0.04980
H3052       H  0.65985597  0.40574079  0.17129455     0.08210
H3053       H  0.62489964  0.39230724  0.14295730     0.08210
H3054       H  0.52387327  0.44148969  0.27421958     0.08190
H3055       H  0.55899651  0.43568768  0.30380536     0.08190
H3056       H  0.55643023  0.47381634  0.27820739     0.04970
C3057       C  0.69957103  0.57727524  0.11741271    -0.20840
C3058       C  0.69433152  0.56190966  0.08538341    -0.07400
C3059       C  0.72206836  0.56085644  0.06203374     0.13470
C3060       C  0.75372662  0.57548665  0.07159176    -0.20890
C3061       C  0.75727126  0.59521813  0.10195221    -0.07410
C3062       C  0.72902938  0.59610949  0.12482809     0.13460
C3063       C  0.72578143  0.62140310  0.15352772    -0.24240
H3064       H  0.67918879  0.57702088  0.13605985     0.14740
H3065       H  0.77457828  0.57515613  0.05318053     0.14770
C3066       C  0.71849488  0.54705873  0.02613652    -0.24190
H3067       H  0.69998289  0.63314751  0.15281489     0.04980
H3068       H  0.74321578  0.64305263  0.14983150     0.08210
H3069       H  0.72971435  0.60851798  0.17860380     0.08210
H3070       H  0.69242867  0.53726170  0.02090937     0.08190
H3071       H  0.73763861  0.52654195  0.02173562     0.08190
H3072       H  0.72374117  0.56756564  0.00724539     0.04970
C3073       C  0.69638213  0.39727332  0.11071269    -0.20840
C3074       C  0.68981370  0.42223069  0.08608303    -0.07400
C3075       C  0.71776156  0.43803301  0.06967596     0.13470
C3076       C  0.75142763  0.42889142  0.07931796    -0.20890
C3077       C  0.75748372  0.40247488  0.10326916    -0.07410
C3078       C  0.72909193  0.38770453  0.12042247     0.13460
C3079       C  0.73198347  0.35855332  0.14594417    -0.24240
H3080       H  0.67540457  0.38285928  0.12051115     0.14740
H3081       H  0.77292611  0.43971872  0.06558717     0.14770
C3082       C  0.71220659  0.46147235  0.03978447    -0.24190
H3083       H  0.71076660  0.34000407  0.14291286     0.04980
H3084       H  0.73010134  0.36878844  0.17247767     0.08210
H3085       H  0.75572624  0.34351526  0.14240494     0.08210
H3086       H  0.69929506  0.48488098  0.04851098     0.08190
H3087       H  0.69574988  0.44894716  0.02034569     0.08190
H3088       H  0.73676497  0.46825637  0.02722263     0.04970
C3089       C  0.37928877  0.63264309  0.25266367    -0.20840
C3090       C  0.35656115  0.66069746  0.25163262    -0.07400
C3091       C  0.35438961  0.68021058  0.22119628     0.13470
C3092       C  0.37176328  0.66900952  0.19175925    -0.20890
C3093       C  0.39080410  0.63843218  0.19154983    -0.07410
C3094       C  0.39633398  0.62116652  0.22290478     0.13460
C3095       C  0.41853066  0.58956339  0.22455675    -0.24240
H3096       H  0.38082569  0.61750284  0.27593921     0.14740
H3097       H  0.36976330  0.68407004  0.16856118     0.14770
C3098       C  0.33206484  0.71157075  0.21886308    -0.24190
H3099       H  0.41890231  0.57836866  0.25077949     0.04980
H3100       H  0.44519642  0.59604936  0.21741221     0.08210
H3101       H  0.40866849  0.56983188  0.20655925     0.08210
H3102       H  0.34290719  0.73122009  0.23571524     0.08190
H3103       H  0.30554643  0.70622321  0.22730051     0.08190
H3104       H  0.33119129  0.72217993  0.19239379     0.04970
C3105       C  0.57786635  0.67435288  0.21403136    -0.20840
C3106       C  0.56795994  0.65850218  0.24467922    -0.07400
C3107       C  0.54172541  0.63355014  0.24373036     0.13470
C3108       C  0.52952641  0.62197347  0.21187868    -0.20890
C3109       C  0.54403510  0.63364152  0.18109788    -0.07410
C3110       C  0.56885800  0.65984691  0.18231562     0.13460
C3111       C  0.58695130  0.67110847  0.14981096    -0.24240
H3112       H  0.59640310  0.69488249  0.21491651     0.14740
H3113       H  0.50820367  0.60430867  0.21105741     0.14770
C3114       C  0.52650905  0.61857553  0.27595183    -0.24190
H3115       H  0.60242667  0.69452661  0.15396182     0.04980
H3116       H  0.56918759  0.67604534  0.12857158     0.08210
H3117       H  0.60373054  0.65038825  0.14018439     0.08210
H3118       H  0.49868383  0.62430478  0.27673264     0.08190
H3119       H  0.53817387  0.62928657  0.29957340     0.08190
H3120       H  0.53009201  0.59032286  0.27607244     0.04970
C3121       C  0.34764760  0.73200850  0.09994947    -0.20840
C3122       C  0.38315138  0.73086850  0.09507413    -0.07400
C3123       C  0.40226190  0.76120103  0.10157277     0.13470
C3124       C  0.38580926  0.79223897  0.10637073    -0.20890
C3125       C  0.35063025  0.79399714  0.10673868    -0.07410
C3126       C  0.33114126  0.76335680  0.10677928     0.13460
C3127       C  0.29345790  0.76312588  0.11463959    -0.24240
H3128       H  0.33299080  0.70844842  0.09947553     0.14740
H3129       H  0.40053204  0.81572150  0.10763115     0.14770
C3130       C  0.44020309  0.76193238  0.10303903    -0.24190
H3131       H  0.27898388  0.75284234  0.09246227     0.04980
H3132       H  0.28866794  0.74639243  0.13720184     0.08210
H3133       H  0.28371958  0.78908119  0.12109194     0.08210
H3134       H  0.44925052  0.75181767  0.07830307     0.08190
H3135       H  0.44898871  0.74692009  0.12552624     0.08190
H3136       H  0.45080562  0.78819617  0.10600084     0.04970
C3137       C  0.54502738  0.74301499  0.11980838    -0.20840
C3138       C  0.52833129  0.73566523  0.08878327    -0.07400
C3139       C  0.51983103  0.76395941  0.06745343     0.13470
C3140       C  0.53078177  0.79736740  0.07648808    -0.20890
C3141       C  0.55246053  0.80340105  0.10480968    -0.07410
C3142       C  0.55884283  0.77543474  0.12721843     0.13460
C3143       C  0.58086376  0.77858238  0.15868054    -0.24240
H3144       H  0.54572941  0.72390827  0.13968482     0.14740
H3145       H  0.52526589  0.81844547  0.05923462     0.14770
C3146       C  0.50000041  0.75972388  0.03447707    -0.24190
H3147       H  0.58926603  0.75308007  0.16816866     0.04980
H3148       H  0.56569803  0.79044338  0.17959964     0.08210
H3149       H  0.60427623  0.79360142  0.15324333     0.08210
H3150       H  0.47698904  0.77645637  0.03477653     0.08190
H3151       H  0.49199207  0.73282903  0.02996724     0.08190
H3152       H  0.51576552  0.76773417  0.01228496     0.04970
C3153       C  0.60699445  0.39061594  0.72526069    -0.20840
C3154       C  0.58454611  0.41792110  0.73069666    -0.07400
C3155       C  0.57054938  0.43489285  0.70208270     0.13470
C3156       C  0.58078765  0.42508167  0.66877983    -0.20890
C3157       C  0.60179376  0.39618627  0.66366051    -0.07410
C3158       C  0.61541259  0.37886441  0.69265033     0.13460
C3159       C  0.63653627  0.34619613  0.69086454    -0.24240
H3160       H  0.61689455  0.37703089  0.74701453     0.14740
H3161       H  0.56940941  0.43747082  0.64667948     0.14770
C3162       C  0.54248235  0.46091847  0.70681552    -0.24190
H3163       H  0.62554791  0.32597764  0.70729994     0.04980
H3164       H  0.66254594  0.35120920  0.70104699     0.08210
H3165       H  0.63851519  0.33553518  0.66452337     0.08210
H3166       H  0.55105267  0.48201307  0.72331232     0.08190
H3167       H  0.52042551  0.44891790  0.72000927     0.08190
H3168       H  0.53360051  0.47146123  0.68188019     0.04970
C3169       C  0.56941149  0.55159892  0.69005612    -0.20840
C3170       C  0.58303707  0.56682731  0.71989518    -0.07400
C3171       C  0.60724677  0.59333559  0.71546051     0.13470
C3172       C  0.61646263  0.60406959  0.68242852    -0.20890
C3173       C  0.59986731  0.59158977  0.65325589    -0.07410
C3174       C  0.57709697  0.56383051  0.65694145     0.13460
C3175       C  0.55965783  0.54747038  0.62668445    -0.24240
H3176       H  0.55201793  0.53036696  0.69250645     0.14740
H3177       H  0.63439708  0.62498579  0.67971736     0.14770
C3178       C  0.62436413  0.61111413  0.74464229    -0.24190
H3179       H  0.56727646  0.52004726  0.62502016     0.04980
H3180       H  0.56630680  0.56014841  0.60211261     0.08210
H3181       H  0.53151574  0.54886343  0.62998958     0.08210
H3182       H  0.65169336  0.60353845  0.74447335     0.08190
H3183       H  0.61264710  0.60501759  0.76963131     0.08190
H3184       H  0.62230463  0.63935911  0.74145114     0.04970
C3185       C  0.67750326  0.61092380  0.80810083    -0.20840
C3186       C  0.67643727  0.58003381  0.82592594    -0.07400
C3187       C  0.70750721  0.56247638  0.83204623     0.13470
C3188       C  0.73857892  0.57600935  0.82077495    -0.20890
C3189       C  0.73948384  0.60702257  0.80325774    -0.07410
C3190       C  0.70808845  0.62395810  0.79520777     0.13460
C3191       C  0.70547421  0.65502088  0.77218554    -0.24240
H3192       H  0.65400721  0.62481927  0.80359164     0.14740
H3193       H  0.76236685  0.56317404  0.82724837     0.14770
C3194       C  0.70902275  0.52878892  0.84954493    -0.24190
H3195       H  0.68928171  0.67503561  0.78414038     0.04980
H3196       H  0.69224605  0.64798763  0.74804617     0.08210
H3197       H  0.73085461  0.66565764  0.76539427     0.08210
H3198       H  0.71866093  0.51068888  0.82986129     0.08190
H3199       H  0.68385727  0.52066512  0.85981547     0.08190
H3200       H  0.72725677  0.52973319  0.87134350     0.04970
C3201       C  0.72202138  0.44435728  0.84077114    -0.20840
C3202       C  0.69307605  0.43022628  0.82490174    -0.07400
C3203       C  0.69753928  0.40193873  0.80286967     0.13470
C3204       C  0.72990329  0.38826041  0.79788255    -0.20890
C3205       C  0.75836028  0.40166370  0.81454488    -0.07410
C3206       C  0.75489525  0.43109499  0.83503765     0.13460
C3207       C  0.78545429  0.44777328  0.85134721    -0.24240
H3208       H  0.71882595  0.46482006  0.85895663     0.14740
H3209       H  0.73293875  0.36547225  0.78222657     0.14770
C3210       C  0.66883080  0.38672001  0.78322230    -0.24190
H3211       H  0.77788978  0.46991507  0.86771263     0.04980
H3212       H  0.80267586  0.45733370  0.83087883     0.08210
H3213       H  0.79970819  0.42919285  0.86743535     0.08210
H3214       H  0.66075114  0.40641699  0.76461920     0.08190
H3215       H  0.64777202  0.37916414  0.80078768     0.08190
H3216       H  0.67662638  0.36359872  0.76837744     0.04970
C3217       C  0.52581539  0.62271898  0.65653148    -0.20840
C3218       C  0.55280972  0.64646840  0.65508244    -0.07400
C3219       C  0.56276099  0.66249140  0.68615080     0.13470
C3220       C  0.54746243  0.65268114  0.71760797    -0.20890
C3221       C  0.52298847  0.62636229  0.71940535    -0.07410
C3222       C  0.51165467  0.61173086  0.68810099     0.13460
C3223       C  0.48676820  0.58228827  0.68806834    -0.24240
H3224       H  0.51824007  0.61006158  0.63297836     0.14740
H3225       H  0.55437975  0.66604817  0.74088459     0.14770
C3226       C  0.59013075  0.68942393  0.68629812    -0.24190
H3227       H  0.48130171  0.57307632  0.66165157     0.04980
H3228       H  0.46231049  0.58987136  0.69990138     0.08210
H3229       H  0.49743803  0.56059219  0.70306555     0.08210
H3230       H  0.58086537  0.71175438  0.67157896     0.08190
H3231       H  0.61396662  0.67976547  0.67420875     0.08190
H3232       H  0.59630988  0.69800071  0.71277555     0.04970
C3233       C  0.39191444  0.62918641  0.70513809    -0.20840
C3234       C  0.37114113  0.63045487  0.73448933    -0.07400
C3235       C  0.33694526  0.64154757  0.73077661     0.13470
C3236       C  0.32564308  0.65339737  0.69862592    -0.20890
C3237       C  0.34601423  0.65015873  0.66884597    -0.07410
C3238       C  0.37968128  0.63702155  0.67237562     0.13460
C3239       C  0.40349992  0.62984710  0.64269716    -0.24240
H3240       H  0.41853545  0.62271330  0.70802457     0.14740
H3241       H  0.29924441  0.66161823  0.69599388     0.14770
C3242       C  0.31109398  0.63914261  0.75928347    -0.24190
H3243       H  0.41599470  0.60452923  0.64576371     0.04980
H3244       H  0.42458082  0.64885104  0.64280096     0.08210
H3245       H  0.39014240  0.62983967  0.61760835     0.08210
H3246       H  0.32243625  0.62987247  0.78367508     0.08190
H3247       H  0.29071715  0.62112374  0.75198830     0.08190
H3248       H  0.29838794  0.66426664  0.76292848     0.04970
C3249       C  0.33703201  0.76099359  0.80456379    -0.20840
C3250       C  0.35089789  0.79356517  0.80862015    -0.07400
C3251       C  0.38504304  0.79696409  0.81974638     0.13470
C3252       C  0.40411439  0.76705642  0.82671877    -0.20890
C3253       C  0.38900847  0.73429429  0.82458883    -0.07410
C3254       C  0.35466956  0.73173281  0.81382520     0.13460
C3255       C  0.33589561  0.69849130  0.81081996    -0.24240
H3256       H  0.31084107  0.75871008  0.79586703     0.14740
H3257       H  0.43062617  0.76937553  0.83440446     0.14770
C3258       C  0.40146108  0.83130719  0.82549974    -0.24190
H3259       H  0.30878115  0.70233973  0.80341204     0.04980
H3260       H  0.33541865  0.68465334  0.83554206     0.08210
H3261       H  0.34894271  0.68312512  0.79106545     0.08210
H3262       H  0.40988687  0.83333473  0.85264128     0.08190
H3263       H  0.38378128  0.85293886  0.82025079     0.08190
H3264       H  0.42407379  0.83386955  0.80838893     0.04970
C3265       C  0.52150836  0.74481024  0.82680866    -0.20840
C3266       C  0.54079851  0.71449699  0.82432983    -0.07400
C3267       C  0.57467807  0.71565320  0.81212600     0.13470
C3268       C  0.58873619  0.74744197  0.80342593    -0.20890
C3269       C  0.56977643  0.77794744  0.80714780    -0.07410
C3270       C  0.53554933  0.77661729  0.81859884     0.13460
C3271       C  0.51364095  0.80805638  0.82393970    -0.24240
H3272       H  0.49487269  0.74354097  0.83449455     0.14740
H3273       H  0.61516306  0.74877977  0.79504635     0.14770
C3274       C  0.59603092  0.68352340  0.80872773    -0.24190
H3275       H  0.49189707  0.80764631  0.80566908     0.04980
H3276       H  0.52801697  0.83218401  0.82046697     0.08210
H3277       H  0.50330391  0.80823183  0.85053161     0.08210
H3278       H  0.58353525  0.66490563  0.79137564     0.08190
H3279       H  0.59913667  0.67139954  0.83428362     0.08190
H3280       H  0.62189505  0.68909460  0.79831733     0.04970
C3281       C  0.61515942  0.73963359  0.88146709    -0.20840
C3282       C  0.58200408  0.73713579  0.89393716    -0.07400
C3283       C  0.56338390  0.76814620  0.89743302     0.13470
C3284       C  0.57648438  0.79863768  0.88202718    -0.20890
C3285       C  0.60852805  0.79880030  0.86469308    -0.07410
C3286       C  0.62926619  0.76983753  0.86951077     0.13460
C3287       C  0.66608488  0.76909348  0.86081019    -0.24240
H3288       H  0.63124564  0.71792576  0.88145117     0.14740
H3289       H  0.56036855  0.82122446  0.88052002     0.14770
C3290       C  0.52939147  0.76860319  0.91549415    -0.24190
H3291       H  0.67875102  0.74532147  0.86978789     0.04980
H3292       H  0.67922629  0.78979861  0.87482387     0.08210
H3293       H  0.66796376  0.77014773  0.83268367     0.08210
H3294       H  0.53263730  0.76046963  0.94259416     0.08190
H3295       H  0.51156705  0.75070442  0.90251728     0.08190
H3296       H  0.51783355  0.79466655  0.91540222     0.04970
C3297       C  0.72727038  0.63566637  0.99999844    -0.20840
C3298       C  0.69569290  0.63495823  0.01750030    -0.07400
C3299       C  0.69466960  0.64334848  0.05279126     0.13470
C3300       C  0.72450299  0.65420177  0.06865544    -0.20890
C3301       C  0.75642452  0.64960058  0.05283553    -0.07410
C3302       C  0.75793029  0.64055813  0.01775719     0.13460
C3303       C  0.79092602  0.63399743  0.99879693    -0.24240
H3304       H  0.72835444  0.63048077  0.97271032     0.14740
H3305       H  0.72343343  0.66182485  0.09533773     0.14770
C3306       C  0.66313097  0.63906179  0.07480851    -0.24190
H3307       H  0.79064665  0.60765605  0.98788904     0.04980
H3308       H  0.81369527  0.63589436  0.01546760     0.08210
H3309       H  0.79357222  0.65273061  0.97749140     0.08210
H3310       H  0.65550799  0.61230563  0.07530766     0.08190
H3311       H  0.64091268  0.65221266  0.06396517     0.08190
H3312       H  0.66692308  0.64772195  0.10170438     0.04970
C3313       C  0.68692059  0.67118229  0.85949880    -0.20840
C3314       C  0.68050262  0.64180983  0.87949448    -0.07400
C3315       C  0.70874857  0.62179297  0.88999178     0.13470
C3316       C  0.74176230  0.62982824  0.87705740    -0.20890
C3317       C  0.74697123  0.65713888  0.85356880    -0.07410
C3318       C  0.71963595  0.68013226  0.84814031     0.13460
C3319       C  0.72353351  0.71253219  0.82754869    -0.24240
H3320       H  0.66567453  0.68683463  0.85133660     0.14740
H3321       H  0.76282467  0.61243915  0.88211802     0.14770
C3322       C  0.70389434  0.59085894  0.91262680    -0.24190
H3323       H  0.69862300  0.72237720  0.81838378     0.04980
H3324       H  0.73882659  0.70798335  0.80422906     0.08210
H3325       H  0.73544324  0.73261988  0.84368028     0.08210
H3326       H  0.68553309  0.57290003  0.90067351     0.08190
H3327       H  0.69333099  0.59827808  0.93781933     0.08190
H3328       H  0.72839594  0.57710652  0.91705947     0.04970
C3329       C  0.58465483  0.75868595  0.01567399    -0.20840
C3330       C  0.59653536  0.73107215  0.03586672    -0.07400
C3331       C  0.61711863  0.73919346  0.06458120     0.13470
C3332       C  0.61950973  0.77257996  0.07589997    -0.20890
C3333       C  0.60613300  0.79976366  0.05747201    -0.07410
C3334       C  0.58964727  0.79313690  0.02590535     0.13460
C3335       C  0.57636170  0.82158674  0.00346951    -0.24240
H3336       H  0.57228727  0.75344170  0.99140341     0.14740
H3337       H  0.62998627  0.77707530  0.10096614     0.14770
C3338       C  0.63868146  0.71385789  0.08301977    -0.24190
H3339       H  0.58868572  0.81992329  0.97778733     0.04980
H3340       H  0.58185917  0.84728814  0.01438868     0.08210
H3341       H  0.54830701  0.81915340  0.00022771     0.08210
H3342       H  0.65849860  0.70484884  0.06472170     0.08190
H3343       H  0.62179944  0.69372654  0.09335226     0.08190
H3344       H  0.65274917  0.72494803  0.10516437     0.04970
C3345       C  0.50892815  0.38251749  0.69378326    -0.20840
C3346       C  0.52100655  0.36550966  0.72315522    -0.07400
C3347       C  0.54575823  0.33963574  0.71873993     0.13470
C3348       C  0.55641720  0.33006976  0.68572225    -0.20890
C3349       C  0.54743971  0.34975654  0.65719237    -0.07410
C3350       C  0.52160777  0.37484835  0.66084127     0.13460
C3351       C  0.50771909  0.39434992  0.63055850    -0.24240
H3352       H  0.49051274  0.40294978  0.69666135     0.14740
H3353       H  0.57554567  0.31027756  0.68279108     0.14770
C3354       C  0.56368401  0.32469130  0.74893303    -0.24190
H3355       H  0.47983120  0.38957351  0.62842813     0.04980
H3356       H  0.51991675  0.38636283  0.60603630     0.08210
H3357       H  0.51177219  0.42227531  0.63418180     0.08210
H3358       H  0.54558279  0.31179193  0.76533781     0.08190
H3359       H  0.57493575  0.34529984  0.76467619     0.08190
H3360       H  0.58391382  0.30638070  0.74136550     0.04970
C3361       C  0.33838257  0.36018736  0.72863431    -0.20840
C3362       C  0.37161998  0.37308400  0.73090531    -0.07400
C3363       C  0.39106325  0.37609755  0.70040853     0.13470
C3364       C  0.37743865  0.36607674  0.66879253    -0.20890
C3365       C  0.34321579  0.35708701  0.66615767    -0.07410
C3366       C  0.32372908  0.35264048  0.69666897     0.13460
C3367       C  0.28789550  0.33903102  0.69640494    -0.24240
H3368       H  0.32427127  0.35481286  0.75199548     0.14740
H3369       H  0.39258655  0.36878600  0.64556875     0.14770
C3370       C  0.42633531  0.39012817  0.70019422    -0.24190
H3371       H  0.28567787  0.31743548  0.71484841     0.04980
H3372       H  0.28109578  0.32870379  0.67087011     0.08210
H3373       H  0.26973633  0.35960550  0.70417340     0.08210
H3374       H  0.44363878  0.36887314  0.69259231     0.08190
H3375       H  0.43348069  0.40126649  0.72533764     0.08190
H3376       H  0.42872018  0.41116334  0.68126479     0.04970
C3377       C  0.52992606  0.24994535  0.78663062    -0.20840
C3378       C  0.52066078  0.26177398  0.81971434    -0.07400
C3379       C  0.52532158  0.23902427  0.84748248     0.13470
C3380       C  0.54239138  0.20739049  0.84139783    -0.20890
C3381       C  0.55824331  0.20018714  0.80937761    -0.07410
C3382       C  0.55269036  0.22305421  0.78204349     0.13460
C3383       C  0.57395929  0.22394111  0.74977092    -0.24240
H3384       H  0.52245104  0.26362471  0.76373232     0.14740
H3385       H  0.54643699  0.18983634  0.86258289     0.14770
C3386       C  0.51313106  0.24786524  0.88314716    -0.24190
H3387       H  0.58430171  0.24998971  0.74590648     0.04980
H3388       H  0.55807010  0.21736416  0.72713501     0.08210
H3389       H  0.59684018  0.20744102  0.75161953     0.08210
H3390       H  0.48532013  0.25252405  0.88327519     0.08190
H3391       H  0.52586220  0.27139480  0.89246459     0.08190
H3392       H  0.51871988  0.22689329  0.90160954     0.04970
C3393       C  0.34477953  0.27721643  0.81001093    -0.20840
C3394       C  0.37720212  0.27400127  0.82522188    -0.07400
C3395       C  0.39301497  0.24088641  0.82599454     0.13470
C3396       C  0.37469435  0.21238049  0.81547545    -0.20890
C3397       C  0.34147233  0.21527423  0.80351375    -0.07410
C3398       C  0.32734894  0.24808146  0.79796207     0.13460
C3399       C  0.29495718  0.25186647  0.77756279    -0.24240
H3400       H  0.33396371  0.30249596  0.80583703     0.14740
H3401       H  0.38541915  0.18750111  0.81994730     0.14770
C3402       C  0.42919523  0.23435895  0.83794709    -0.24190
H3403       H  0.28799909  0.27924480  0.77381165     0.04980
H3404       H  0.27359487  0.23841963  0.79054627     0.08210
H3405       H  0.29870831  0.24023262  0.75175772     0.08210
H3406       H  0.43370165  0.24810373  0.86227643     0.08190
H3407       H  0.44765657  0.24294568  0.81809012     0.08190
H3408       H  0.43450271  0.20671851  0.84254226     0.04970
C3409       C  0.60143297  0.27766121  0.06518388    -0.20840
C3410       C  0.59263897  0.27217122  0.03070180    -0.07400
C3411       C  0.59466060  0.23804422  0.01747855     0.13470
C3412       C  0.60513788  0.21124141  0.03855005    -0.20890
C3413       C  0.61426910  0.21699718  0.07247999    -0.07410
C3414       C  0.61401110  0.25091915  0.08568768     0.13460
C3415       C  0.62689369  0.25964348  0.12110564    -0.24240
H3416       H  0.59918684  0.30305482  0.07618956     0.14740
H3417       H  0.60487036  0.18511721  0.02888945     0.14770
C3418       C  0.58687314  0.22888714  0.98101662    -0.24190
H3419       H  0.64968557  0.27619430  0.11923216     0.04980
H3420       H  0.63460556  0.23661280  0.13573033     0.08210
H3421       H  0.60719689  0.27400822  0.13575163     0.08210
H3422       H  0.60850286  0.23846022  0.96546873     0.08190
H3423       H  0.56196019  0.24006612  0.97307991     0.08190
H3424       H  0.58553151  0.20073547  0.97667376     0.04970
C3425       C  0.62120736  0.23947133  0.82247790    -0.20840
C3426       C  0.62329436  0.20974964  0.84331154    -0.07400
C3427       C  0.62109903  0.21580380  0.87880784     0.13470
C3428       C  0.59704075  0.24060345  0.88891762    -0.20890
C3429       C  0.59438396  0.27105619  0.86987725    -0.07410
C3430       C  0.60840132  0.27075266  0.83633520     0.13460
C3431       C  0.60772752  0.30268818  0.81517191    -0.24240
H3432       H  0.62716327  0.23761550  0.79541136     0.14740
H3433       H  0.58915493  0.24149461  0.91519223     0.14770
C3434       C  0.65484049  0.22221702  0.89662890    -0.24190
H3435       H  0.61901196  0.29831352  0.78935309     0.04980
H3436       H  0.62191336  0.32359789  0.82778764     0.08210
H3437       H  0.58083452  0.31118303  0.81315192     0.08210
H3438       H  0.67527420  0.20462902  0.88806471     0.08190
H3439       H  0.65199212  0.22038410  0.92493350     0.08190
H3440       H  0.66418466  0.24842517  0.89044448     0.04970
C3441       C  0.71876751  0.38209083  0.00975881    -0.20840
C3442       C  0.69032543  0.36725015  0.02613313    -0.07400
C3443       C  0.69614910  0.34391832  0.05293267     0.13470
C3444       C  0.72908023  0.33805318  0.06423980    -0.20890
C3445       C  0.75728206  0.35478422  0.05017872    -0.07410
C3446       C  0.75240319  0.37576464  0.02121124     0.13460
C3447       C  0.78240196  0.39175698  0.00311332    -0.24240
H3448       H  0.71494577  0.39896113  0.98863260     0.14740
H3449       H  0.73158108  0.32425801  0.08778606     0.14770
C3450       C  0.66773483  0.32614140  0.07175256    -0.24190
H3451       H  0.77408980  0.40807391  0.98130478     0.04980
H3452       H  0.79932729  0.37119101  0.99291660     0.08210
H3453       H  0.79731685  0.40786335  0.02109774     0.08210
H3454       H  0.66758301  0.29880921  0.06383593     0.08190
H3455       H  0.64268033  0.33841018  0.06689858     0.08190
H3456       H  0.67168645  0.32754552  0.09983920     0.04970
C3457       C  0.69245456  0.34167836  0.86142698    -0.20840
C3458       C  0.68817395  0.36940250  0.88373791    -0.07400
C3459       C  0.71764967  0.38532510  0.89718204     0.13470
C3460       C  0.75048255  0.37324643  0.88782058    -0.20890
C3461       C  0.75474886  0.34848149  0.86171937    -0.07410
C3462       C  0.72465267  0.33226125  0.84876992     0.13460
C3463       C  0.72492743  0.30623182  0.82012582    -0.24240
H3464       H  0.67049157  0.32694258  0.85380390     0.14740
H3465       H  0.77282042  0.38616340  0.89774126     0.14770
C3466       C  0.71395355  0.41663291  0.91971545    -0.24190
H3467       H  0.70763042  0.31443520  0.79911706     0.04980
H3468       H  0.71574872  0.28110528  0.82986316     0.08210
H3469       H  0.75066121  0.30302928  0.80926589     0.08210
H3470       H  0.69628223  0.41169420  0.94108218     0.08190
H3471       H  0.70160676  0.43766978  0.90537582     0.08190
H3472       H  0.73893753  0.42566559  0.92964578     0.04970
C3473       C  0.50002621  0.37414086  0.23058864    -0.20840
C3474       C  0.51628525  0.36679807  0.19897942    -0.07400
C3475       C  0.54795007  0.34898842  0.19913210     0.13470
C3476       C  0.56251280  0.33990015  0.23050565    -0.20890
C3477       C  0.54853557  0.35136781  0.26162671    -0.07410
C3478       C  0.51605715  0.36672661  0.26201777     0.13460
C3479       C  0.49875084  0.37506729  0.29558993    -0.24240
H3480       H  0.47495750  0.38599211  0.23068812     0.14740
H3481       H  0.58748983  0.32774408  0.23068627     0.14770
C3482       C  0.56803691  0.34112582  0.16682500    -0.24190
H3483       H  0.47466223  0.38940511  0.29167030     0.04980
H3484       H  0.51551982  0.39097721  0.31203041     0.08210
H3485       H  0.49281803  0.35089277  0.30934450     0.08210
H3486       H  0.57379942  0.36503151  0.15287186     0.08190
H3487       H  0.55363047  0.32527930  0.14901608     0.08190
H3488       H  0.59235816  0.32744983  0.17226314     0.04970
C3489       C  0.33646583  0.34453622  0.22261066    -0.20840
C3490       C  0.35380243  0.35815112  0.25076386    -0.07400
C3491       C  0.38336472  0.37801166  0.24479439     0.13470
C3492       C  0.39332580  0.38559431  0.21058450    -0.20890
C3493       C  0.37346592  0.37493868  0.18237881    -0.07410
C3494       C  0.34466098  0.35416356  0.18907899     0.13460
C3495       C  0.32259218  0.34128305  0.16058492    -0.24240
H3496       H  0.31425519  0.32859498  0.22710694     0.14740
H3497       H  0.41697600  0.39916747  0.20584065     0.14770
C3498       C  0.40425833  0.39088320  0.27437201    -0.24190
H3499       H  0.29741720  0.33216121  0.17004815     0.04980
H3500       H  0.33613830  0.31944890  0.14924295     0.08210
H3501       H  0.31817805  0.36164108  0.14115562     0.08210
H3502       H  0.42494142  0.40810411  0.26536989     0.08190
H3503       H  0.38816151  0.40550858  0.29273753     0.08190
H3504       H  0.41572474  0.36869789  0.28800752     0.04970
C3505       C  0.34681316  0.27560410  0.10234414    -0.20840
C3506       C  0.38162724  0.27094601  0.09504156    -0.07400
C3507       C  0.39607269  0.23750841  0.10049103     0.13470
C3508       C  0.37513832  0.21033541  0.11114430    -0.20890
C3509       C  0.34013737  0.21498049  0.11602897    -0.07410
C3510       C  0.32633027  0.24851827  0.11427156     0.13460
C3511       C  0.28987409  0.25615962  0.12416429    -0.24240
H3512       H  0.33512532  0.30035580  0.09764413     0.14740
H3513       H  0.38547885  0.18452739  0.11235857     0.14770
C3514       C  0.43266631  0.22865540  0.09205408    -0.24190
H3515       H  0.27579987  0.26664893  0.10185401     0.04980
H3516       H  0.28937298  0.27543187  0.14510380     0.08210
H3517       H  0.27644989  0.23315149  0.13390167     0.08210
H3518       H  0.45056674  0.24224872  0.10935796     0.08190
H3519       H  0.43739144  0.23509248  0.06482681     0.08190
H3520       H  0.43816704  0.20083791  0.09506064     0.04970
C3521       C  0.53654151  0.25987820  0.13865115    -0.20840
C3522       C  0.52625554  0.26886384  0.10530036    -0.07400
C3523       C  0.52663507  0.24315655  0.07993642     0.13470
C3524       C  0.54154231  0.21094045  0.08801214    -0.20890
C3525       C  0.55935379  0.20576418  0.11941714    -0.07410
C3526       C  0.55483443  0.23038609  0.14557260     0.13460
C3527       C  0.57115110  0.22858251  0.18022047    -0.24240
H3528       H  0.53146523  0.27674109  0.16014761     0.14740
H3529       H  0.54331716  0.19147501  0.06818916     0.14770
C3530       C  0.51182155  0.24970297  0.04489572    -0.24190
H3531       H  0.57122435  0.25379345  0.19362240     0.04980
H3532       H  0.59811413  0.22064381  0.17807436     0.08210
H3533       H  0.55575763  0.21118708  0.19613019     0.08210
H3534       H  0.52549470  0.27093923  0.03208426     0.08190
H3535       H  0.48483986  0.25775747  0.04710336     0.08190
H3536       H  0.51342408  0.22656483  0.02828247     0.04970
C3537       C  0.29217617  0.24564216  0.90884539    -0.20840
C3538       C  0.32665450  0.25225834  0.91059658    -0.07400
C3539       C  0.34935815  0.22651576  0.90005286     0.13470
C3540       C  0.33644582  0.19960029  0.87936438    -0.20890
C3541       C  0.30252275  0.20086016  0.86642594    -0.07410
C3542       C  0.27956292  0.22296297  0.88477955     0.13460
C3543       C  0.24283202  0.22820142  0.87779150    -0.24240
H3544       H  0.27460634  0.26165729  0.92333720     0.14740
H3545       H  0.35351653  0.17936946  0.87088630     0.14770
C3546       C  0.38558914  0.22644678  0.91237494    -0.24190
H3547       H  0.23177890  0.25182217  0.88948334     0.04980
H3548       H  0.22809630  0.20761133  0.89019235     0.08210
H3549       H  0.24093971  0.23227099  0.85010663     0.08210
H3550       H  0.38587609  0.22225425  0.94052108     0.08190
H3551       H  0.39760988  0.25155867  0.90684861     0.08190
H3552       H  0.40068605  0.20551943  0.90021574     0.04970
C3553       C  0.20439591  0.36156428  0.89553368    -0.20840
C3554       C  0.23301798  0.34635298  0.87975995    -0.07400
C3555       C  0.22746863  0.32040590  0.85500744     0.13470
C3556       C  0.19412521  0.31354850  0.84344706    -0.20890
C3557       C  0.16621111  0.33276010  0.85552811    -0.07410
C3558       C  0.17097169  0.35454825  0.88404926     0.13460
C3559       C  0.14090123  0.37031939  0.90244154    -0.24240
H3560       H  0.20825331  0.37878924  0.91691890     0.14740
H3561       H  0.19048814  0.29621928  0.82203294     0.14770
C3562       C  0.25696642  0.30089220  0.83959010    -0.24190
H3563       H  0.14438408  0.39845646  0.90486160     0.04980
H3564       H  0.13870183  0.35873606  0.92834687     0.08210
H3565       H  0.11635657  0.36534737  0.88916212     0.08210
H3566       H  0.27089075  0.28667866  0.85943778     0.08190
H3567       H  0.27608924  0.31803890  0.82834317     0.08190
H3568       H  0.24793477  0.28299891  0.81955904     0.04970
C3569       C  0.22699223  0.34440567  0.04824098    -0.20840
C3570       C  0.22420189  0.36906228  0.02247540    -0.07400
C3571       C  0.19104564  0.37832848  0.01083968     0.13470
C3572       C  0.16198685  0.36525551  0.02783939    -0.20890
C3573       C  0.16530943  0.34262022  0.05568757    -0.07410
C3574       C  0.19829693  0.32985165  0.06352577     0.13460
C3575       C  0.20479842  0.30041402  0.08730808    -0.24240
H3576       H  0.25191392  0.33567729  0.05649015     0.14740
H3577       H  0.13690517  0.37529828  0.02148757     0.14770
C3578       C  0.18544208  0.40385575  0.98248663    -0.24190
H3579       H  0.21586375  0.27972573  0.07158712     0.04980
H3580       H  0.22496530  0.30673163  0.10590479     0.08210
H3581       H  0.18154375  0.29134639  0.10084839     0.08210
H3582       H  0.17148766  0.39131460  0.96153407     0.08190
H3583       H  0.20961104  0.41452169  0.97215701     0.08190
H3584       H  0.16936936  0.42543310  0.99183843     0.04970
C3585       C  0.28485553  0.25672402  0.03231319    -0.20840
C3586       C  0.31871699  0.26981862  0.02986894    -0.07400
C3587       C  0.34505810  0.24472088  0.02877591     0.13470
C3588       C  0.33780735  0.21104180  0.04151644    -0.20890
C3589       C  0.30400873  0.20155815  0.05132072    -0.07410
C3590       C  0.27845667  0.22167924  0.03617234     0.13460
C3591       C  0.25645129  0.20636705  0.00835041    -0.24240
H3592       H  0.26303189  0.27260759  0.02585731     0.14740
H3593       H  0.35860398  0.19322441  0.04597993     0.14770
C3594       C  0.37948631  0.25270751  0.01355715    -0.24190
H3595       H  0.26184281  0.21901313  0.98332131     0.04980
H3596       H  0.22904847  0.21028678  0.01393711     0.08210
H3597       H  0.26210826  0.17874170  0.00437630     0.08210
H3598       H  0.39164167  0.27456724  0.02666089     0.08190
H3599       H  0.37637328  0.25985630  0.98624030     0.08190
H3600       H  0.39689268  0.23019096  0.01488163     0.04970
C3601       C  0.22871734  0.10586620  0.62160975    -0.20840
C3602       C  0.23405136  0.08155732  0.59570522    -0.07400
C3603       C  0.20560641  0.06719293  0.57912260     0.13470
C3604       C  0.17259574  0.07669156  0.58992189    -0.20890
C3605       C  0.16744253  0.10476656  0.61218639    -0.07410
C3606       C  0.19678525  0.12084368  0.62714802     0.13460
C3607       C  0.19727176  0.15627502  0.64395791    -0.24240
H3608       H  0.25061241  0.11534671  0.63549724     0.14740
H3609       H  0.15069307  0.06541746  0.57726751     0.14770
C3610       C  0.21003746  0.04366158  0.54872802    -0.24190
H3611       H  0.21689908  0.17304878  0.63318866     0.04980
H3612       H  0.20525441  0.15577212  0.67099200     0.08210
H3613       H  0.17332672  0.17076797  0.64014868     0.08210
H3614       H  0.22495307  0.02079921  0.55569864     0.08190
H3615       H  0.22421265  0.05715269  0.52809377     0.08190
H3616       H  0.18505813  0.03524792  0.53821092     0.04970
C3617       C  0.19021234  0.94903719  0.57407593    -0.20840
C3618       C  0.22103470  0.93457078  0.58648512    -0.07400
C3619       C  0.21840586  0.90712974  0.60993387     0.13470
C3620       C  0.18686886  0.89313267  0.61787757    -0.20890
C3621       C  0.15679116  0.90539755  0.60356797    -0.07410
C3622       C  0.15797146  0.93514681  0.58306419     0.13460
C3623       C  0.12557683  0.95346965  0.57313586    -0.24240
H3624       H  0.19121975  0.97185196  0.55838799     0.14740
H3625       H  0.18573163  0.87056658  0.63418063     0.14770
C3626       C  0.24771920  0.89383136  0.62992046    -0.24190
H3627       H  0.13091705  0.97614022  0.55673696     0.04980
H3628       H  0.11233370  0.96246728  0.59677685     0.08210
H3629       H  0.10800010  0.93630843  0.55919668     0.08210
H3630       H  0.25052037  0.91060367  0.65259378     0.08190
H3631       H  0.27090096  0.89148103  0.61370118     0.08190
H3632       H  0.24236399  0.86818628  0.64055259     0.04970
C3633       C  0.32813469  0.08165919  0.75721787    -0.20840
C3634       C  0.29940318  0.10355554  0.75399569    -0.07400
C3635       C  0.28050536  0.10184863  0.72340629     0.13470
C3636       C  0.28976315  0.07900330  0.69796108    -0.20890
C3637       C  0.32138342  0.06277524  0.69815956    -0.07410
C3638       C  0.34096102  0.06329521  0.72849619     0.13460
C3639       C  0.37622042  0.04778367  0.72956542    -0.24240
H3640       H  0.34266219  0.08222461  0.78079218     0.14740
H3641       H  0.27373437  0.07754897  0.67570493     0.14770
C3642       C  0.25343382  0.12661177  0.71379489    -0.24190
H3643       H  0.38847660  0.05163390  0.75493679     0.04980
H3644       H  0.39255563  0.05976115  0.70959272     0.08210
H3645       H  0.37544103  0.02007165  0.72451893     0.08210
H3646       H  0.25326476  0.14909676  0.73080185     0.08190
H3647       H  0.22910739  0.11221503  0.71257086     0.08190
H3648       H  0.25845772  0.13737910  0.68819424     0.04970
C3649       C  0.30652760  0.91720544  0.74188855    -0.20840
C3650       C  0.29269796  0.88440566  0.74061201    -0.07400
C3651       C  0.29021170  0.86782996  0.70829172     0.13470
C3652       C  0.30598897  0.88242782  0.67923492    -0.20890
C3653       C  0.32145138  0.91483020  0.68043008    -0.07410
C3654       C  0.32121007  0.93220982  0.71267174     0.13460
C3655       C  0.33883299  0.96558688  0.71824138    -0.24240
H3656       H  0.30918054  0.92973801  0.76664897     0.14740
H3657       H  0.30542490  0.86863036  0.65510224     0.14770
C3658       C  0.27160129  0.83434753  0.70395010    -0.24190
H3659       H  0.35695670  0.96313814  0.74002247     0.04980
H3660       H  0.31971664  0.98565460  0.72490203     0.08210
H3661       H  0.35410294  0.97295511  0.69550212     0.08210
H3662       H  0.26509157  0.82230691  0.72885577     0.08190
H3663       H  0.28733788  0.81616624  0.68880727     0.08190
H3664       H  0.24745130  0.83867163  0.68983091     0.04970
C3665       C  0.35138574  0.74428988  0.52579166    -0.20840
C3666       C  0.32400118  0.76722474  0.52030036    -0.07400
C3667       C  0.29060158  0.75306322  0.52316507     0.13470
C3668       C  0.28578263  0.72325016  0.54222790    -0.20890
C3669       C  0.31277364  0.70252365  0.55324701    -0.07410
C3670       C  0.34565904  0.71115531  0.54004125     0.13460
C3671       C  0.37381378  0.68478859  0.53775733    -0.24240
H3672       H  0.37689944  0.75151232  0.51771576     0.14740
H3673       H  0.26019403  0.71592611  0.54595766     0.14770
C3674       C  0.25927229  0.76517906  0.50364715    -0.24190
H3675       H  0.37916568  0.67927845  0.51027229     0.04980
H3676       H  0.36671071  0.66029493  0.55035995     0.08210
H3677       H  0.39769659  0.69444947  0.54932596     0.08210
H3678       H  0.26409999  0.78414122  0.48345196     0.08190
H3679       H  0.23936059  0.77503628  0.52139067     0.08190
H3680       H  0.24812954  0.74298525  0.48970276     0.04970
C3681       C  0.28110405  0.76922681  0.36263901    -0.20840
C3682       C  0.30996954  0.77236943  0.38384231    -0.07400
C3683       C  0.32734169  0.74215790  0.39376993     0.13470
C3684       C  0.31736816  0.71053837  0.37908565    -0.20890
C3685       C  0.29226849  0.70916082  0.35310491    -0.07410
C3686       C  0.27327997  0.73892534  0.34582430     0.13460
C3687       C  0.24723590  0.74020624  0.31764171    -0.24240
H3688       H  0.26510221  0.79115508  0.35755805     0.14740
H3689       H  0.33174897  0.68750930  0.38497307     0.14770
C3690       C  0.35641321  0.74297613  0.41895370    -0.24190
H3691       H  0.23803498  0.76669171  0.31244657     0.04980
H3692       H  0.22545168  0.72497674  0.32617776     0.08210
H3693       H  0.25751677  0.72972794  0.29321217     0.08210
H3694       H  0.34685281  0.75049359  0.44461111     0.08190
H3695       H  0.37617881  0.76145588  0.41036582     0.08190
H3696       H  0.36871100  0.71738008  0.42151632     0.04970
C3697       C  0.19084733  0.83267287  0.57436633    -0.20840
C3698       C  0.16201844  0.84829851  0.55966394    -0.07400
C3699       C  0.16684465  0.86959435  0.53077202     0.13470
C3700       C  0.20028229  0.87904460  0.52082933    -0.20890
C3701       C  0.22913571  0.86582436  0.53788140    -0.07410
C3702       C  0.22405544  0.84057374  0.56360026     0.13460
C3703       C  0.25326933  0.82162092  0.58063322    -0.24240
H3704       H  0.18802779  0.81775559  0.59749239     0.14740
H3705       H  0.20395090  0.89505014  0.49837524     0.14770
C3706       C  0.13677041  0.88070665  0.50955584    -0.24190
H3707       H  0.25106545  0.82295140  0.60891350     0.04980
H3708       H  0.27877131  0.83167392  0.57340981     0.08210
H3709       H  0.25204791  0.79415711  0.57376614     0.08210
H3710       H  0.11673605  0.89245556  0.52576806     0.08190
H3711       H  0.12558080  0.85789865  0.49675540     0.08190
H3712       H  0.14441235  0.89950044  0.48960899     0.04970
C3713       C  0.19683648  0.85444777  0.33966213    -0.20840
C3714       C  0.16496496  0.85955684  0.35547466    -0.07400
C3715       C  0.16382756  0.87525339  0.38807105     0.13470
C3716       C  0.19465702  0.88512082  0.40391702    -0.20890
C3717       C  0.22680361  0.88021471  0.38777373    -0.07410
C3718       C  0.22744493  0.86466594  0.35486213     0.13460
C3719       C  0.25979530  0.85827016  0.33489032    -0.24240
H3720       H  0.19755947  0.84316326  0.31424045     0.14740
H3721       H  0.19368862  0.89620292  0.42945744     0.14770
C3722       C  0.13022876  0.88235774  0.40566979    -0.24190
H3723       H  0.25509164  0.84322534  0.31116215     0.04980
H3724       H  0.27831346  0.84397468  0.35023499     0.08210
H3725       H  0.27167015  0.88258964  0.32743741     0.08210
H3726       H  0.11721423  0.85785741  0.41164487     0.08190
H3727       H  0.11350966  0.89806086  0.38887657     0.08190
H3728       H  0.13381034  0.89660967  0.43004285     0.04970
C3729       C  0.32579872  0.30719252  0.52713904    -0.20840
C3730       C  0.30428986  0.30559291  0.55581223    -0.07400
C3731       C  0.28853097  0.27428826  0.56420339     0.13470
C3732       C  0.29596327  0.24543680  0.54428050    -0.20890
C3733       C  0.32111978  0.24536864  0.51889896    -0.07410
C3734       C  0.33516563  0.27731443  0.50920121     0.13460
C3735       C  0.35924808  0.28051390  0.47974426    -0.24240
H3736       H  0.33716603  0.33158035  0.52030282     0.14740
H3737       H  0.28158504  0.22287554  0.54787232     0.14770
C3738       C  0.26522184  0.26995893  0.59475465    -0.24190
H3739       H  0.37093597  0.30640456  0.47823463     0.04980
H3740       H  0.34391233  0.27688317  0.45626019     0.08210
H3741       H  0.38016067  0.26130596  0.48201112     0.08210
H3742       H  0.27429239  0.24834041  0.61078270     0.08190
H3743       H  0.26496386  0.29265986  0.61180310     0.08190
H3744       H  0.23885542  0.26438561  0.58589771     0.04970
C3745       C  0.33189128  0.28303371  0.37554255    -0.20840
C3746       C  0.31059241  0.28869109  0.34679241    -0.07400
C3747       C  0.30115454  0.25921373  0.32714980     0.13470
C3748       C  0.30994331  0.22604559  0.33860922    -0.20890
C3749       C  0.33132526  0.22085350  0.36694760    -0.07410
C3750       C  0.34452485  0.24981925  0.38358878     0.13460
C3751       C  0.37465338  0.24495410  0.40710535    -0.24240
H3752       H  0.34165765  0.30500073  0.38934432     0.14740
H3753       H  0.30027093  0.20387693  0.32499124     0.14770
C3754       C  0.28428011  0.26141736  0.29245974    -0.24190
H3755       H  0.38568653  0.26988444  0.41512323     0.04980
H3756       H  0.39507167  0.23041170  0.39361151     0.08210
H3757       H  0.36751936  0.22944817  0.42972959     0.08210
H3758       H  0.28104606  0.28809767  0.28331059     0.08190
H3759       H  0.25914226  0.24830256  0.29306814     0.08190
H3760       H  0.30047759  0.24804706  0.27329294     0.04970
C3761       C  0.19550451  0.11028933  0.39428612    -0.20840
C3762       C  0.22150192  0.13484930  0.39006275    -0.07400
C3763       C  0.21079324  0.16830886  0.37973763     0.13470
C3764       C  0.17837378  0.17346112  0.36611770    -0.20890
C3765       C  0.15447774  0.14740770  0.36427674    -0.07410
C3766       C  0.16183253  0.11666530  0.38248977     0.13460
C3767       C  0.13449151  0.09085141  0.39032682    -0.24240
H3768       H  0.20125598  0.08637008  0.40725870     0.14740
H3769       H  0.17309760  0.19752211  0.35434356     0.14770
C3770       C  0.23248229  0.19970457  0.38267983    -0.24190
H3771       H  0.10980065  0.09769705  0.37807630     0.04980
H3772       H  0.14263055  0.06496652  0.38174875     0.08210
H3773       H  0.13044289  0.08983902  0.41854790     0.08210
H3774       H  0.25392694  0.19722748  0.36451654     0.08190
H3775       H  0.24029677  0.20334977  0.40978457     0.08190
H3776       H  0.21868464  0.22355690  0.37536793     0.04970
C3777       C  0.20189959  0.12332771  0.51364509    -0.20840
C3778       C  0.23008376  0.13801837  0.53052366    -0.07400
C3779       C  0.22450161  0.16001933  0.55835335     0.13470
C3780       C  0.19098906  0.16797220  0.56791728    -0.20890
C3781       C  0.16308970  0.14916582  0.55556353    -0.07410
C3782       C  0.16842504  0.12756538  0.52682636     0.13460
C3783       C  0.13892330  0.10957233  0.51002768    -0.24240
H3784       H  0.20608379  0.10854703  0.49039670     0.14740
H3785       H  0.18716186  0.18678761  0.58763927     0.14770
C3786       C  0.25405478  0.17444777  0.57883485    -0.24190
H3787       H  0.14756029  0.09334654  0.48816482     0.04980
H3788       H  0.12061593  0.12893385  0.50009493     0.08210
H3789       H  0.12557886  0.09292306  0.52881260     0.08210
H3790       H  0.27908053  0.17225042  0.56580285     0.08190
H3791       H  0.25899423  0.15978615  0.60221792     0.08190
H3792       H  0.24828460  0.20113718  0.58648269     0.04970
C3793       C  0.52120512  0.29692227  0.59206632    -0.20840
C3794       C  0.55364681  0.29515543  0.60673227    -0.07400
C3795       C  0.56700565  0.26279381  0.61642365     0.13470
C3796       C  0.54975552  0.23293780  0.60669523    -0.20890
C3797       C  0.51866611  0.23436074  0.58922801    -0.07410
C3798       C  0.50395281  0.26700479  0.58257257     0.13460
C3799       C  0.47059222  0.27126147  0.56440049    -0.24240
H3800       H  0.51073648  0.32173949  0.58503745     0.14740
H3801       H  0.56018600  0.20841154  0.61365167     0.14770
C3802       C  0.59870012  0.25879382  0.63780711    -0.24190
H3803       H  0.47240239  0.29171437  0.54463496     0.04980
H3804       H  0.45156268  0.27853930  0.58410805     0.08210
H3805       H  0.46245572  0.24757571  0.55098109     0.08210
H3806       H  0.59162772  0.24782961  0.66316223     0.08190
H3807       H  0.61189471  0.28346784  0.64223978     0.08190
H3808       H  0.61654897  0.24061959  0.62516320     0.04970
C3809       C  0.38557202  0.26020554  0.58004953    -0.20840
C3810       C  0.37138577  0.23381291  0.60026379    -0.07400
C3811       C  0.34839858  0.24454089  0.62681711     0.13470
C3812       C  0.33936430  0.27898256  0.63146458    -0.20890
C3813       C  0.35169564  0.30444802  0.61013021    -0.07410
C3814       C  0.37705350  0.29540639  0.58558049     0.13460
C3815       C  0.39510575  0.32287271  0.56523753    -0.24240
H3816       H  0.40353753  0.25336402  0.56006722     0.14740
H3817       H  0.31984454  0.28575304  0.65009551     0.14770
C3818       C  0.33065059  0.21990904  0.64941407    -0.24190
H3819       H  0.42159665  0.32590944  0.57460603     0.04980
H3820       H  0.38254741  0.34829685  0.56801775     0.08210
H3821       H  0.39595743  0.31604430  0.53760236     0.08210
H3822       H  0.35030644  0.20606288  0.66412386     0.08190
H3823       H  0.31444677  0.20393923  0.63257549     0.08190
H3824       H  0.31332889  0.23223595  0.66850005     0.04970
C3825       C  0.57934638  0.15110098  0.72081312    -0.20840
C3826       C  0.56059379  0.14670572  0.75157785    -0.07400
C3827       C  0.52593963  0.13687112  0.74873638     0.13470
C3828       C  0.51182209  0.13080006  0.71584426    -0.20890
C3829       C  0.53175571  0.13249396  0.68554147    -0.07410
C3830       C  0.56591860  0.14313335  0.68837467     0.13460
C3831       C  0.58867080  0.14521012  0.65721666    -0.24240
H3832       H  0.60575604  0.15886172  0.72241662     0.14740
H3833       H  0.48492162  0.12464658  0.71382498     0.14770
C3834       C  0.50351033  0.13191419  0.77976554    -0.24190
H3835       H  0.61489885  0.15371123  0.66385797     0.04980
H3836       H  0.57802301  0.16337521  0.63851029     0.08210
H3837       H  0.59032630  0.11973003  0.64469194     0.08210
H3838       H  0.48135241  0.14972840  0.77833802     0.08190
H3839       H  0.51715428  0.13695681  0.80416607     0.08190
H3840       H  0.49398073  0.10511690  0.78032505     0.04970
C3841       C  0.39694969  0.13120188  0.72532788    -0.20840
C3842       C  0.38143396  0.13215201  0.69275430    -0.07400
C3843       C  0.34816948  0.14599311  0.68989674     0.13470
C3844       C  0.33356717  0.16247035  0.71845758    -0.20890
C3845       C  0.34703589  0.15794498  0.75155668    -0.07410
C3846       C  0.37914668  0.14124765  0.75499290     0.13460
C3847       C  0.39378634  0.12998297  0.78894460    -0.24240
H3848       H  0.42234511  0.12029141  0.72793734     0.14740
H3849       H  0.30864121  0.17439594  0.71588509     0.14770
C3850       C  0.32723259  0.14302353  0.65740276    -0.24190
H3851       H  0.40041850  0.10230828  0.78793996     0.04980
H3852       H  0.37543602  0.13316605  0.81046113     0.08210
H3853       H  0.41763480  0.14437597  0.79425213     0.08210
H3854       H  0.32202531  0.11628102  0.65125191     0.08190
H3855       H  0.34023391  0.15424251  0.63492365     0.08190
H3856       H  0.30213064  0.15580385  0.65995368     0.04970
C3857       C  0.60620709  0.23334047  0.35540434    -0.20840
C3858       C  0.59252530  0.23413692  0.38880546    -0.07400
C3859       C  0.59068586  0.26680637  0.40556847     0.13470
C3860       C  0.60066751  0.29659844  0.38849635    -0.20890
C3861       C  0.61306308  0.29551141  0.35520338    -0.07410
C3862       C  0.61905485  0.26326492  0.33963290     0.13460
C3863       C  0.63921490  0.26057551  0.30667878    -0.24240
H3864       H  0.60701371  0.20936253  0.34155758     0.14740
H3865       H  0.59556959  0.32134891  0.40006559     0.14770
C3866       C  0.57498235  0.27188088  0.44022367    -0.24190
H3867       H  0.66603951  0.26815892  0.31172807     0.04980
H3868       H  0.62892495  0.27780167  0.28662589     0.08210
H3869       H  0.63942405  0.23392684  0.29653593     0.08210
H3870       H  0.59092808  0.25946379  0.45999384     0.08190
H3871       H  0.54862352  0.26188770  0.43895977     0.08190
H3872       H  0.57308599  0.29932411  0.44781820     0.04970
C3873       C  0.62363708  0.24330142  0.53758601    -0.20840
C3874       C  0.59139540  0.23196785  0.52673099    -0.07400
C3875       C  0.56541152  0.25652720  0.52286110     0.13470
C3876       C  0.57219357  0.29078251  0.53331586    -0.20890
C3877       C  0.60204147  0.29882046  0.55265296    -0.07410
C3878       C  0.62804312  0.27391552  0.55464269     0.13460
C3879       C  0.65843838  0.27560782  0.57820172    -0.24240
H3880       H  0.64573096  0.22725588  0.53475759     0.14740
H3881       H  0.55240184  0.31007310  0.53051627     0.14770
C3882       C  0.53173028  0.24674226  0.50687019    -0.24190
H3883       H  0.66239119  0.25083852  0.59146351     0.04980
H3884       H  0.65441520  0.29405108  0.59931183     0.08210
H3885       H  0.68195325  0.28071356  0.56308691     0.08210
H3886       H  0.51772091  0.22866064  0.52343200     0.08190
H3887       H  0.53580252  0.23241056  0.48273101     0.08190
H3888       H  0.51548542  0.26958568  0.50185799     0.04970
C3889       C  0.73453725  0.16539160  0.36071514    -0.20840
C3890       C  0.75864726  0.14010409  0.36660887    -0.07400
C3891       C  0.74865131  0.11153109  0.38695491     0.13470
C3892       C  0.71384287  0.10772061  0.39672388    -0.20890
C3893       C  0.68913633  0.13191379  0.38631551    -0.07410
C3894       C  0.70051187  0.16166636  0.36884818     0.13460
C3895       C  0.67718350  0.18956145  0.35578789    -0.24240
H3896       H  0.74060169  0.18577130  0.34430599     0.14740
H3897       H  0.70622704  0.08630087  0.41269248     0.14770
C3898       C  0.77415683  0.08535301  0.39901351    -0.24190
H3899       H  0.68418872  0.19701496  0.32915493     0.04980
H3900       H  0.67897208  0.21253609  0.37257543     0.08210
H3901       H  0.65075735  0.18040351  0.35450202     0.08210
H3902       H  0.80031076  0.09095011  0.38945823     0.08190
H3903       H  0.76643736  0.05940105  0.39038279     0.08190
H3904       H  0.77481095  0.08532262  0.42748294     0.04970
C3905       C  0.71779630  0.11485840  0.51175986    -0.20840
C3906       C  0.68826705  0.12775455  0.52859782    -0.07400
C3907       C  0.69336711  0.15076324  0.55638046     0.13470
C3908       C  0.72630136  0.15596560  0.56892872    -0.20890
C3909       C  0.75534169  0.14176307  0.55346758    -0.07410
C3910       C  0.75105454  0.12270174  0.52303225     0.13460
C3911       C  0.78099189  0.11115086  0.50158982    -0.24240
H3912       H  0.71495591  0.09972785  0.48853505     0.14740
H3913       H  0.72842627  0.16828819  0.59348571     0.14770
C3914       C  0.66625730  0.17253675  0.57306899    -0.24190
H3915       H  0.77983670  0.12415329  0.47626870     0.04980
H3916       H  0.80584076  0.11769082  0.51357922     0.08210
H3917       H  0.77984289  0.08303854  0.49726867     0.08210
H3918       H  0.64018098  0.16804409  0.56355696     0.08190
H3919       H  0.67403089  0.19932983  0.56950913     0.08190
H3920       H  0.66610572  0.16941554  0.60126194     0.04970
C3921       C  0.56830703  0.73233030  0.50863809    -0.20840
C3922       C  0.59380934  0.75748493  0.51098117    -0.07400
C3923       C  0.62698059  0.74496626  0.51928810     0.13470
C3924       C  0.62989090  0.71641922  0.54077847    -0.20890
C3925       C  0.60319047  0.69279067  0.54292848    -0.07410
C3926       C  0.57402520  0.69899122  0.52199801     0.13460
C3927       C  0.54996519  0.67074616  0.51203503    -0.24240
H3928       H  0.54471591  0.73809713  0.49526491     0.14740
H3929       H  0.65381500  0.71174584  0.55357724     0.14770
C3930       C  0.65773232  0.75244742  0.49708899    -0.24190
H3931       H  0.55182278  0.66654709  0.48387229     0.04980
H3932       H  0.52322673  0.67813129  0.51796562     0.08210
H3933       H  0.55638053  0.64617314  0.52491105     0.08210
H3934       H  0.66485494  0.77950967  0.49672916     0.08190
H3935       H  0.65205730  0.74397001  0.47053730     0.08190
H3936       H  0.68062281  0.73778507  0.50555217     0.04970
C3937       C  0.63538613  0.72167579  0.36849985    -0.20840
C3938       C  0.60643023  0.70329262  0.35940068    -0.07400
C3939       C  0.57433070  0.71485754  0.37231512     0.13470
C3940       C  0.57125503  0.74900456  0.38445748    -0.20890
C3941       C  0.60052245  0.76956678  0.38765595    -0.07410
C3942       C  0.63298170  0.75257999  0.38578804     0.13460
C3943       C  0.66629780  0.76618826  0.39982544    -0.24240
H3944       H  0.66038078  0.71384549  0.35980399     0.14740
H3945       H  0.54628947  0.75955373  0.39051238     0.14770
C3946       C  0.54367027  0.69168835  0.37354879    -0.24190
H3947       H  0.67850704  0.78298354  0.38068847     0.04980
H3948       H  0.68435260  0.74482952  0.40535796     0.08210
H3949       H  0.66279253  0.77948216  0.42473424     0.08210
H3950       H  0.54916624  0.66621496  0.36195929     0.08190
H3951       H  0.52163672  0.70347386  0.36017866     0.08190
H3952       H  0.53622988  0.68764333  0.40078438     0.04970
C3953       C  0.69495240  0.84639746  0.36520122    -0.20840
C3954       C  0.69549304  0.87141798  0.39088990    -0.07400
C3955       C  0.72718057  0.88314168  0.40343693     0.13470
C3956       C  0.75745010  0.87058513  0.38881912    -0.20890
C3957       C  0.75650731  0.84913269  0.36000458    -0.07410
C3958       C  0.72486077  0.83510142  0.34926402     0.13460
C3959       C  0.72076487  0.81203596  0.31835365    -0.24240
H3960       H  0.67071890  0.83639669  0.35640898     0.14740
H3961       H  0.78181797  0.88055220  0.39736064     0.14770
C3962       C  0.72911961  0.91074719  0.43023373    -0.24190
H3963       H  0.69777685  0.81905321  0.30353352     0.04980
H3964       H  0.71648504  0.78531953  0.32666322     0.08210
H3965       H  0.74263946  0.81378952  0.30031560     0.08210
H3966       H  0.71830246  0.90097652  0.45436612     0.08190
H3967       H  0.71443243  0.93362926  0.42176034     0.08190
H3968       H  0.75588585  0.91873848  0.43519470     0.04970
C3969       C  0.70943609  0.88639143  0.52218843    -0.20840
C3970       C  0.68493809  0.86225467  0.53292269    -0.07400
C3971       C  0.69697756  0.83302629  0.55141657     0.13470
C3972       C  0.73130117  0.83053022  0.56081997    -0.20890
C3973       C  0.75575223  0.85462664  0.55084517    -0.07410
C3974       C  0.74481231  0.88192967  0.52946928     0.13460
C3975       C  0.77069173  0.90592011  0.51412800    -0.24240
H3976       H  0.70094757  0.90825831  0.50738808     0.14740
H3977       H  0.73750859  0.81215836  0.58041320     0.14770
C3978       C  0.67448700  0.80422636  0.56394246    -0.24190
H3979       H  0.75823679  0.92774325  0.50073459     0.04980
H3980       H  0.78668287  0.89158900  0.49533878     0.08210
H3981       H  0.78780257  0.91627666  0.53413584     0.08210
H3982       H  0.64746753  0.80731978  0.55680299     0.08190
H3983       H  0.67573921  0.80208359  0.59223308     0.08190
H3984       H  0.68432667  0.77956180  0.55375950     0.04970
C3985       C  0.59523418  0.88500697  0.67784127    -0.20840
C3986       C  0.57760329  0.91598065  0.68217473    -0.07400
C3987       C  0.57222094  0.92838289  0.71602316     0.13470
C3988       C  0.58679375  0.91127779  0.74400506    -0.20890
C3989       C  0.60513505  0.88074263  0.73940997    -0.07410
C3990       C  0.61044639  0.86804719  0.70572400     0.13460
C3991       C  0.63182941  0.83656433  0.69860483    -0.24240
H3992       H  0.59764327  0.87433472  0.65228353     0.14740
H3993       H  0.58131562  0.92021862  0.76984783     0.14770
C3994       C  0.54930716  0.95839931  0.72345234    -0.24190
H3995       H  0.61889133  0.81946018  0.67996843     0.04980
H3996       H  0.63752065  0.82186574  0.72211311     0.08210
H3997       H  0.65672173  0.84411120  0.68774197     0.08210
H3998       H  0.53428400  0.96537984  0.70040633     0.08190
H3999       H  0.56483404  0.98040630  0.73249379     0.08190
H4000       H  0.53057866  0.95155618  0.74378752     0.04970
C4001       C  0.71414241  0.94224598  0.58685967    -0.20840
C4002       C  0.68639049  0.92012512  0.59272755    -0.07400
C4003       C  0.69252887  0.88927478  0.61035277     0.13470
C4004       C  0.72578066  0.87908517  0.61772385    -0.20890
C4005       C  0.75388822  0.89891945  0.60810543    -0.07410
C4006       C  0.74787531  0.93219622  0.59509468     0.13460
C4007       C  0.77633764  0.95751127  0.59047227    -0.24240
H4008       H  0.70947898  0.96759765  0.57669695     0.14740
H4009       H  0.72968138  0.85335612  0.62704482     0.14770
C4010       C  0.66373941  0.86706269  0.62197827    -0.24190
H4011       H  0.77711665  0.96647212  0.56348390     0.04980
H4012       H  0.80163486  0.94648785  0.59716133     0.08210
H4013       H  0.77158617  0.97986609  0.60754719     0.08210
H4014       H  0.64561932  0.86195172  0.60068921     0.08190
H4015       H  0.65105721  0.88124365  0.64273572     0.08190
H4016       H  0.67285824  0.84234426  0.63259614     0.04970
C4017       C  0.57310090  0.07151236  0.75173461    -0.20840
C4018       C  0.60285428  0.09038244  0.75984456    -0.07400
C4019       C  0.62849837  0.09440523  0.73444391     0.13470
C4020       C  0.62489922  0.07728332  0.70372935    -0.20890
C4021       C  0.59340470  0.06347294  0.69327915    -0.07410
C4022       C  0.56701241  0.06037833  0.71774353     0.13460
C4023       C  0.53261368  0.04640444  0.70792816    -0.24240
H4024       H  0.55291049  0.06958232  0.77074223     0.14740
H4025       H  0.64721870  0.07617945  0.68764411     0.14770
C4026       C  0.65971155  0.11712139  0.73805773    -0.24190
H4027       H  0.51546578  0.04380372  0.73056094     0.04980
H4028       H  0.53564353  0.02121855  0.69544234     0.08210
H4029       H  0.52015982  0.06358135  0.68905850     0.08210
H4030       H  0.68334183  0.10135479  0.73694070     0.08190
H4031       H  0.65997493  0.13229562  0.76198170     0.08190
H4032       H  0.66069483  0.13561476  0.71640297     0.04970
C4033       C  0.71905148  0.04539263  0.57168159    -0.20840
C4034       C  0.68945802  0.05981961  0.58665092    -0.07400
C4035       C  0.69349141  0.08765043  0.60942635     0.13470
C4036       C  0.72636754  0.09948761  0.61782531    -0.20890
C4037       C  0.75559178  0.08709214  0.60073691    -0.07410
C4038       C  0.75188449  0.05901710  0.57805139     0.13460
C4039       C  0.78266511  0.04289908  0.56128890    -0.24240
H4040       H  0.71649421  0.02321799  0.55512856     0.14740
H4041       H  0.72883498  0.12148429  0.63466002     0.14770
C4042       C  0.66284717  0.10608943  0.62350561    -0.24190
H4043       H  0.77523388  0.02417722  0.54115843     0.04980
H4044       H  0.79779072  0.02929918  0.58100884     0.08210
H4045       H  0.79919639  0.06255133  0.54935206     0.08210
H4046       H  0.64619311  0.08831103  0.63656378     0.08190
H4047       H  0.64712049  0.11603516  0.60217025     0.08190
H4048       H  0.66979420  0.12690544  0.64166440     0.04970
C4049       C  0.51835222  0.73786288  0.57277278    -0.20840
C4050       C  0.53725637  0.76800599  0.57795562    -0.07400
C4051       C  0.56880099  0.76570232  0.59516960     0.13470
C4052       C  0.58094895  0.73338413  0.60573229    -0.20890
C4053       C  0.56129947  0.70336769  0.60122096    -0.07410
C4054       C  0.52867814  0.70620042  0.58649396     0.13460
C4055       C  0.50509022  0.67572082  0.58477535    -0.24240
H4056       H  0.49431155  0.73976657  0.55955617     0.14740
H4057       H  0.60656473  0.73117490  0.61608439     0.14770
C4058       C  0.58949587  0.79746691  0.60207275    -0.24190
H4059       H  0.51824927  0.65287395  0.57402097     0.04980
H4060       H  0.48243488  0.68104362  0.56850965     0.08210
H4061       H  0.49606665  0.66947673  0.61104262     0.08210
H4062       H  0.57518910  0.81548296  0.61880947     0.08190
H4063       H  0.59453140  0.81081525  0.57751589     0.08190
H4064       H  0.61419010  0.79131469  0.61468944     0.04970
C4065       C  0.37975817  0.71021786  0.61460840    -0.20840
C4066       C  0.34477788  0.71089273  0.61930096    -0.07400
C4067       C  0.32830911  0.74339761  0.61892165     0.13470
C4068       C  0.34577981  0.77244286  0.60603274    -0.20890
C4069       C  0.38039487  0.77018790  0.59613823    -0.07410
C4070       C  0.39796435  0.73897230  0.60398666     0.13460
C4071       C  0.43559017  0.73360698  0.59874757    -0.24240
H4072       H  0.39240102  0.68601300  0.61381247     0.14740
H4073       H  0.33229370  0.79666365  0.60374932     0.14770
C4074       C  0.29255345  0.74774446  0.63207215    -0.24190
H4075       H  0.44407243  0.70765160  0.60671790     0.04980
H4076       H  0.45030600  0.75189778  0.61467007     0.08210
H4077       H  0.44097441  0.73634519  0.57098025     0.08210
H4078       H  0.28387685  0.72444794  0.64585511     0.08190
H4079       H  0.27513559  0.75366413  0.61053828     0.08190
H4080       H  0.29165402  0.76920152  0.65074492     0.04970
C4081       C  0.36374487  0.82574911  0.69252122    -0.20840
C4082       C  0.38045694  0.85698339  0.68587012    -0.07400
C4083       C  0.38575057  0.87993382  0.71319690     0.13470
C4084       C  0.37109752  0.87244270  0.74570682    -0.20890
C4085       C  0.35113733  0.84255458  0.75099722    -0.07410
C4086       C  0.35023889  0.81768567  0.72456216     0.13460
C4087       C  0.33391501  0.78295169  0.72848219    -0.24240
H4088       H  0.36096307  0.80707810  0.67205050     0.14740
H4089       H  0.37230197  0.89151205  0.76593776     0.14770
C4090       C  0.40452752  0.91306179  0.70714783    -0.24190
H4091       H  0.32844999  0.77084054  0.70326264     0.04980
H4092       H  0.30934909  0.78462504  0.74254512     0.08210
H4093       H  0.35219077  0.76557389  0.74142413     0.08210
H4094       H  0.39037683  0.92890894  0.68848344     0.08190
H4095       H  0.42949227  0.90848021  0.69483356     0.08190
H4096       H  0.40823472  0.92770049  0.73132567     0.04970
C4097       C  0.54543865  0.81639949  0.68996083    -0.20840
C4098       C  0.52545652  0.84642526  0.68865480    -0.07400
C4099       C  0.51708427  0.86275533  0.71999190     0.13470
C4100       C  0.53384097  0.85318252  0.75013536    -0.20890
C4101       C  0.55814062  0.82677279  0.75008842    -0.07410
C4102       C  0.56131500  0.80592175  0.72064329     0.13460
C4103       C  0.58144903  0.77301964  0.72128179    -0.24240
H4104       H  0.54756888  0.80035382  0.66736854     0.14740
H4105       H  0.53036833  0.86856934  0.77309791     0.14770
C4106       C  0.48939659  0.88912279  0.72224445    -0.24190
H4107       H  0.56628102  0.75305509  0.73463820     0.04980
H4108       H  0.60611684  0.77603038  0.73478723     0.08210
H4109       H  0.58714203  0.76420182  0.69481382     0.08210
H4110       H  0.46505683  0.87522285  0.71887999     0.08190
H4111       H  0.49290322  0.90906778  0.70221085     0.08190
H4112       H  0.48846850  0.90185836  0.74777781     0.04970
C4113       C  0.56819561  0.94243858  0.19732886    -0.20840
C4114       C  0.59582774  0.93951605  0.22010163    -0.07400
C4115       C  0.62856902  0.93220838  0.20535919     0.13470
C4116       C  0.63012481  0.91624407  0.17351131    -0.20890
C4117       C  0.60217553  0.91573591  0.15142428    -0.07410
C4118       C  0.57229023  0.93378699  0.16217733     0.13460
C4119       C  0.54473649  0.94373102  0.13729133    -0.24240
H4120       H  0.54364781  0.95141872  0.20672263     0.14740
H4121       H  0.65333175  0.90301213  0.16718393     0.14770
C4122       C  0.66296295  0.94166079  0.22029258    -0.24190
H4123       H  0.54338269  0.97214307  0.13583258     0.04980
H4124       H  0.51953213  0.93442867  0.14627205     0.08210
H4125       H  0.55003326  0.93375822  0.11108022     0.08210
H4126       H  0.66231244  0.96167113  0.24037039     0.08190
H4127       H  0.67841902  0.95362154  0.19957865     0.08190
H4128       H  0.67679328  0.91841798  0.22913150     0.04970
C4129       C  0.62881912  0.07917577  0.22116493    -0.20840
C4130       C  0.59610854  0.06499636  0.22385762    -0.07400
C4131       C  0.57794459  0.05969929  0.19304137     0.13470
C4132       C  0.58871988  0.07653738  0.16280668    -0.20890
C4133       C  0.61820222  0.09734970  0.16253902    -0.07410
C4134       C  0.64055169  0.09475017  0.19099136     0.13460
C4135       C  0.67634307  0.10875307  0.19106832    -0.24240
H4136       H  0.64624012  0.07677479  0.24231389     0.14740
H4137       H  0.57242117  0.07607122  0.14035321     0.14770
C4138       C  0.54746145  0.03639255  0.19221108    -0.24190
H4139       H  0.69279530  0.09222169  0.17478150     0.04980
H4140       H  0.68770899  0.10826432  0.21717988     0.08210
H4141       H  0.67680698  0.13570744  0.18230080     0.08210
H4142       H  0.52791465  0.04526941  0.21092755     0.08190
H4143       H  0.55554710  0.01021684  0.19936942     0.08190
H4144       H  0.53600147  0.03501001  0.16619811     0.04970
C4145       C  0.71733802  0.94138764  0.34254422    -0.20840
C4146       C  0.68725010  0.92590795  0.32957018    -0.07400
C4147       C  0.69142351  0.89901162  0.30538436     0.13470
C4148       C  0.72456768  0.88858265  0.29534015    -0.20890
C4149       C  0.75424941  0.90172055  0.31082406    -0.07410
C4150       C  0.75044114  0.92941069  0.33383158     0.13460
C4151       C  0.78148793  0.94589359  0.34947962    -0.24240
H4152       H  0.71489817  0.96330258  0.35955122     0.14740
H4153       H  0.72719296  0.86736179  0.27762254     0.14770
C4154       C  0.66141804  0.87964127  0.29112955    -0.24190
H4155       H  0.77431928  0.96633953  0.36805823     0.04980
H4156       H  0.79747539  0.95718962  0.32879618     0.08210
H4157       H  0.79713523  0.92670673  0.36337213     0.08210
H4158       H  0.64576299  0.89621411  0.27502898     0.08190
H4159       H  0.64551641  0.86908623  0.31221822     0.08190
H4160       H  0.66944295  0.85830738  0.27404193     0.04970
C4161       C  0.72453988  0.11741991  0.30039975    -0.20840
C4162       C  0.75398328  0.09781518  0.30770013    -0.07400
C4163       C  0.75006177  0.06371246  0.31871680     0.13470
C4164       C  0.71716082  0.05163528  0.32683594    -0.20890
C4165       C  0.68812068  0.07265382  0.32288654    -0.07410
C4166       C  0.69173181  0.10513572  0.30767595     0.13460
C4167       C  0.66084598  0.12733084  0.30047565    -0.24240
H4168       H  0.72714798  0.14377443  0.29224525     0.14740
H4169       H  0.71391401  0.02528323  0.33503818     0.14770
C4170       C  0.78046846  0.04020650  0.32165629    -0.24190
H4171       H  0.66805562  0.15255906  0.28948591     0.04980
H4172       H  0.64612780  0.13129663  0.32447596     0.08210
H4173       H  0.64338888  0.11481238  0.28227335     0.08210
H4174       H  0.80020917  0.05135911  0.33868327     0.08190
H4175       H  0.79173663  0.03593988  0.29584362     0.08190
H4176       H  0.77291314  0.01498631  0.33211641     0.04970
C4177       C  0.33515269  0.74591290  0.30035246    -0.20840
C4178       C  0.34826562  0.71315101  0.30763532    -0.07400
C4179       C  0.37817078  0.71035655  0.32767595     0.13470
C4180       C  0.39354493  0.74035172  0.34034039    -0.20890
C4181       C  0.37921368  0.77294902  0.33426910    -0.07410
C4182       C  0.34931760  0.77551310  0.31463092     0.13460
C4183       C  0.33231153  0.80974024  0.30877810    -0.24240
H4184       H  0.31212887  0.74818617  0.28523123     0.14740
H4185       H  0.41742534  0.73854863  0.35423605     0.14770
C4186       C  0.39351312  0.67596658  0.33620889    -0.24190
H4187       H  0.30701958  0.80664672  0.29637466     0.04980
H4188       H  0.34839623  0.82666004  0.29283310     0.08210
H4189       H  0.32863035  0.82296599  0.33354227     0.08210
H4190       H  0.40245138  0.66333572  0.31232549     0.08190
H4191       H  0.37432994  0.65942971  0.34906846     0.08190
H4192       H  0.41584940  0.67850146  0.35357471     0.04970
C4193       C  0.57443378  0.77774023  0.30852617    -0.20840
C4194       C  0.53895606  0.77678434  0.31416053    -0.07400
C4195       C  0.52090954  0.74639147  0.30391820     0.13470
C4196       C  0.53917957  0.71694444  0.29478580    -0.20890
C4197       C  0.57459052  0.71694227  0.29409712    -0.07410
C4198       C  0.59215583  0.74851142  0.29667155     0.13460
C4199       C  0.62935669  0.75113889  0.28683636    -0.24240
H4200       H  0.58853165  0.80085793  0.31442620     0.14740
H4201       H  0.52577318  0.69292243  0.29137379     0.14770
C4202       C  0.48247493  0.74328973  0.30312151    -0.24190
H4203       H  0.63929705  0.77748609  0.29098471     0.04980
H4204       H  0.63223014  0.74474239  0.25917224     0.08210
H4205       H  0.64537388  0.73307568  0.30168508     0.08210
H4206       H  0.47188670  0.76280045  0.28538987     0.08190
H4207       H  0.47184405  0.74596902  0.32939549     0.08190
H4208       H  0.47386037  0.71793032  0.29341159     0.04970
C4209       C  0.35560184  0.82546646  0.18147472    -0.20840
C4210       C  0.36281554  0.84974763  0.15626828    -0.07400
C4211       C  0.38818526  0.87458333  0.16280022     0.13470
C4212       C  0.40003734  0.87925811  0.19666270    -0.20890
C4213       C  0.39021541  0.85669322  0.22305499    -0.07410
C4214       C  0.37150137  0.82704143  0.21350412     0.13460
C4215       C  0.37018233  0.79508388  0.23459202    -0.24240
H4216       H  0.33759303  0.80506193  0.17614515     0.14740
H4217       H  0.41859919  0.89912084  0.20205115     0.14770
C4218       C  0.40387059  0.89444357  0.13363951    -0.24190
H4219       H  0.38103369  0.77355717  0.21929958     0.04980
H4220       H  0.34316779  0.78948600  0.24101725     0.08210
H4221       H  0.38551914  0.79671546  0.25817503     0.08210
H4222       H  0.38415815  0.90691493  0.11771995     0.08190
H4223       H  0.41807472  0.87645150  0.11667106     0.08190
H4224       H  0.42185304  0.91431511  0.14305509     0.04970
C4225       C  0.51110315  0.87478866  0.19759257    -0.20840
C4226       C  0.53240356  0.87302195  0.22665574    -0.07400
C4227       C  0.56609892  0.86081303  0.22254792     0.13470
C4228       C  0.57894091  0.85457551  0.18968097    -0.20890
C4229       C  0.55850120  0.85844609  0.16031983    -0.07410
C4230       C  0.52359875  0.86676012  0.16446156     0.13460
C4231       C  0.49961484  0.86702541  0.13432377    -0.24240
H4232       H  0.48421389  0.88069194  0.20109518     0.14740
H4233       H  0.60557159  0.84732196  0.18661927     0.14770
C4234       C  0.58801810  0.85256852  0.25301573    -0.24190
H4235       H  0.47408937  0.87683748  0.14190793     0.04980
H4236       H  0.49629314  0.84055343  0.12455018     0.08210
H4237       H  0.50961682  0.88339093  0.11332499     0.08210
H4238       H  0.57607157  0.83124519  0.26707764     0.08190
H4239       H  0.58964543  0.87504265  0.27032215     0.08190
H4240       H  0.61416908  0.84441064  0.24534794     0.04970
C4241       C  0.52138850  0.25398807  0.34641528    -0.20840
C4242       C  0.53218316  0.22932762  0.32215415    -0.07400
C4243       C  0.55135056  0.24085108  0.29345736     0.13470
C4244       C  0.55909793  0.27535228  0.28943402    -0.20890
C4245       C  0.55254317  0.29899107  0.31522623    -0.07410
C4246       C  0.53183580  0.28876740  0.34347200     0.13460
C4247       C  0.51996307  0.31419023  0.37006641    -0.24240
H4248       H  0.50496951  0.24627978  0.36748376     0.14740
H4249       H  0.57453005  0.28305355  0.26776255     0.14770
C4250       C  0.56708106  0.21658502  0.26815614    -0.24190
H4251       H  0.49161266  0.31560618  0.36978429     0.04980
H4252       H  0.52818605  0.30598024  0.39597934     0.08210
H4253       H  0.53011697  0.34028303  0.36514214     0.08210
H4254       H  0.54719007  0.20500784  0.25184541     0.08190
H4255       H  0.58178202  0.19661385  0.28209237     0.08190
H4256       H  0.58495654  0.23025779  0.25090956     0.04970
C4257       C  0.36408171  0.28167616  0.28237172    -0.20840
C4258       C  0.36707018  0.30792816  0.30618770    -0.07400
C4259       C  0.39189528  0.30440970  0.33249635     0.13470
C4260       C  0.40766484  0.27203801  0.33798859    -0.20890
C4261       C  0.39791245  0.24312476  0.31857517    -0.07410
C4262       C  0.37949081  0.24992422  0.28806621     0.13460
C4263       C  0.37609267  0.22362022  0.26106260    -0.24240
H4264       H  0.34720431  0.28498249  0.26064039     0.14740
H4265       H  0.42657458  0.26923939  0.35808252     0.14770
C4266       C  0.40138445  0.33403634  0.35527651    -0.24190
H4267       H  0.35824948  0.23137051  0.24039261     0.04980
H4268       H  0.36628985  0.20105167  0.27451912     0.08210
H4269       H  0.40144867  0.21873338  0.24923361     0.08210
H4270       H  0.38663553  0.35755757  0.34893796     0.08190
H4271       H  0.42898111  0.33975169  0.35191850     0.08190
H4272       H  0.39671832  0.32746724  0.38259958     0.04970
C4273       C  0.33902727  0.15934044  0.23470206    -0.20840
C4274       C  0.36733992  0.13688378  0.23543179    -0.07400
C4275       C  0.38114098  0.12659911  0.20346208     0.13470
C4276       C  0.36746114  0.13865017  0.17229882    -0.20890
C4277       C  0.33993986  0.16172781  0.17182767    -0.07410
C4278       C  0.32747855  0.17417811  0.20354763     0.13460
C4279       C  0.30243531  0.20365298  0.20419792    -0.24240
H4280       H  0.32719095  0.16709555  0.25865746     0.14740
H4281       H  0.37686264  0.12831294  0.14817615     0.14770
C4282       C  0.41116967  0.10307651  0.20274957    -0.24190
H4283       H  0.29298226  0.20872174  0.23057091     0.04980
H4284       H  0.28013600  0.19869225  0.18756139     0.08210
H4285       H  0.31523199  0.22708336  0.19444414     0.08210
H4286       H  0.40696662  0.08106310  0.22019556     0.08190
H4287       H  0.43282400  0.11784164  0.21274714     0.08190
H4288       H  0.41685715  0.09351204  0.17645230     0.04970
C4289       C  0.56541285  0.13943579  0.23339262    -0.20840
C4290       C  0.53325672  0.12478975  0.22748124    -0.07400
C4291       C  0.52088334  0.12208382  0.19342684     0.13470
C4292       C  0.53889206  0.13733928  0.16688994    -0.20890
C4293       C  0.57095297  0.15115099  0.17289633    -0.07410
C4294       C  0.58464188  0.15259221  0.20651469     0.13460
C4295       C  0.61943234  0.16757052  0.21456589    -0.24240
H4296       H  0.57554980  0.14119360  0.25920144     0.14740
H4297       H  0.52982507  0.13471901  0.14067419     0.14770
C4298       C  0.49077171  0.10092974  0.18316109    -0.24190
H4299       H  0.63480741  0.14938254  0.22986455     0.04980
H4300       H  0.61722033  0.19073656  0.23041813     0.08210
H4301       H  0.63387747  0.17493483  0.19123426     0.08210
H4302       H  0.47156345  0.11806584  0.17117530     0.08190
H4303       H  0.48020572  0.08606874  0.20495042     0.08190
H4304       H  0.49854703  0.08203983  0.16327193     0.04970
C4305       C  0.21540382  0.91959769  0.28874216    -0.20840
C4306       C  0.21725437  0.93910066  0.31896881    -0.07400
C4307       C  0.18696838  0.94579211  0.33756826     0.13470
C4308       C  0.15625706  0.93025497  0.32701535    -0.20890
C4309       C  0.15577029  0.90599025  0.30009374    -0.07410
C4310       C  0.18523582  0.90284262  0.27904195     0.13460
C4311       C  0.18612981  0.88020615  0.24776824    -0.24240
H4312       H  0.23805900  0.91672704  0.27298563     0.14740
H4313       H  0.13355884  0.93339249  0.34271862     0.14770
C4314       C  0.18756502  0.96664210  0.37017810    -0.24190
H4315       H  0.21156889  0.88007377  0.23518858     0.04980
H4316       H  0.16813552  0.89018748  0.22834322     0.08210
H4317       H  0.17995343  0.85345105  0.25490267     0.08210
H4318       H  0.19590956  0.99312363  0.36495053     0.08190
H4319       H  0.20571478  0.95497715  0.38867470     0.08190
H4320       H  0.16195538  0.96787183  0.38253352     0.04970
C4321       C  0.33633745  0.93778966  0.20423704    -0.20840
C4322       C  0.32432012  0.91789024  0.23158633    -0.07400
C4323       C  0.30481591  0.88850682  0.22386964     0.13470
C4324       C  0.29788749  0.87989181  0.18952871    -0.20890
C4325       C  0.31112335  0.89918045  0.16204254    -0.07410
C4326       C  0.32924582  0.92953557  0.16973433     0.13460
C4327       C  0.34099878  0.95379370  0.14222248    -0.24240
H4328       H  0.35099187  0.96029796  0.21034354     0.14740
H4329       H  0.28468365  0.85607840  0.18408571     0.14770
C4330       C  0.29282066  0.86457668  0.25137796    -0.24190
H4331       H  0.32540998  0.97758209  0.14334008     0.04980
H4332       H  0.33807120  0.94284188  0.11631347     0.08210
H4333       H  0.36837065  0.96024748  0.14592213     0.08210
H4334       H  0.26459138  0.86385884  0.25204897     0.08190
H4335       H  0.30262331  0.87214035  0.27692448     0.08190
H4336       H  0.30234515  0.83839274  0.24556583     0.04970
C4337       C  0.29635808  0.09168953  0.22852890    -0.20840
C4338       C  0.32316179  0.06855451  0.22356860    -0.07400
C4339       C  0.33300963  0.06111000  0.18925948     0.13470
C4340       C  0.31860678  0.08003823  0.16189599    -0.20890
C4341       C  0.29439186  0.10616935  0.16791695    -0.07410
C4342       C  0.28180152  0.11028453  0.20173605     0.13460
C4343       C  0.25474366  0.13560962  0.21153716    -0.24240
H4344       H  0.28682111  0.09608512  0.25386370     0.14740
H4345       H  0.32821324  0.07630236  0.13600324     0.14770
C4346       C  0.35867807  0.03365612  0.18123428    -0.24190
H4347       H  0.23196360  0.12172038  0.22062020     0.04980
H4348       H  0.26358846  0.15220364  0.23284787     0.08210
H4349       H  0.24823087  0.15210833  0.18992174     0.08210
H4350       H  0.34700478  0.00911505  0.18788845     0.08190
H4351       H  0.38227894  0.03665764  0.19641843     0.08190
H4352       H  0.36559427  0.03305319  0.15354202     0.04970
C4353       C  0.19788656  0.12814435  0.30270176    -0.20840
C4354       C  0.16888622  0.10687823  0.30590825    -0.07400
C4355       C  0.17365129  0.07223795  0.31488081     0.13470
C4356       C  0.20656006  0.06093373  0.32397634    -0.20890
C4357       C  0.23523768  0.08270469  0.32333056    -0.07410
C4358       C  0.23081739  0.11668021  0.31159852     0.13460
C4359       C  0.26022974  0.14162105  0.31023786    -0.24240
H4360       H  0.19423380  0.15473406  0.29536492     0.14740
H4361       H  0.21029746  0.03424142  0.32960674     0.14770
C4362       C  0.14475397  0.04678442  0.31340337    -0.24190
H4363       H  0.25203622  0.16710898  0.30045720     0.04980
H4364       H  0.28121562  0.13232243  0.29379267     0.08210
H4365       H  0.27088802  0.14527147  0.33618229     0.08210
H4366       H  0.13842877  0.04130413  0.28622889     0.08190
H4367       H  0.12161321  0.05684040  0.32654030     0.08190
H4368       H  0.15190132  0.02203092  0.32554464     0.04970
loop_ 
_geom_bond_atom_site_label_1 
_geom_bond_atom_site_label_2 
_geom_bond_distance 
_geom_bond_site_symmetry_2 
_ccdc_geom_bond_type 
Fe1          O17   2.113       .  S
Fe1           O7   2.187       .  S
Fe1          O14   2.211       .  S
Fe1           O6   2.129       .  S
Fe1          O12   1.929       .  S
Fe2           O5   2.127       .  S
Fe2           O9   2.150       .  S
Fe2          O13   2.093       .  S
Fe2          O18   2.153       .  S
Fe2          O12   1.889   1_565  S
Fe3          O21   2.037   1_545  S
Fe3           O8   2.009   1_545  S
Fe3          O15   2.023       .  S
Fe3           O4   2.026       .  S
Fe3          O12   1.925       .  S
O4           C11   1.253       .  A
O5           C19   1.277       .  A
O6           C11   1.281       .  A
O7           C10   1.300       .  A
O8           C20   1.256       .  A
O9           C22   1.294       .  A
C10          O15   1.257       .  A
C10        C4338   1.491       .  S
C11        C4357   1.475       .  S
O13          C16   1.277       .  A
O14          C16   1.297   1_545  A
C16         C275   1.584       .  S
O17          C22   1.277   1_545  A
O18          C20   1.291       .  A
C19          O21   1.252       .  A
C19        C4322   1.479       .  S
C20        C4306   1.474       .  S
C22          C89   1.560       .  S
Fe23         O39   2.160       .  S
Fe23         O29   2.220       .  S
Fe23         O36   2.265       .  S
Fe23         O28   2.149       .  S
Fe23         O34   1.918       .  S
Fe24         O27   2.142       .  S
Fe24         O31   2.065       .  S
Fe24         O35   2.045       .  S
Fe24         O40   2.088       .  S
Fe24         O34   1.911       .  S
Fe25         O43   2.016       .  S
Fe25         O30   2.019       .  S
Fe25         O37   2.005       .  S
Fe25         O26   2.009       .  S
Fe25         O34   1.915       .  S
O26          C33   1.252       .  A
O27          C41   1.278       .  A
O28          C33   1.283       .  A
O29          C32   1.311       .  A
O30          C42   1.257       .  A
O31          C44   1.265       .  A
C32          O37   1.258       .  A
C32        C4261   1.503       .  S
C33        C4274   1.499       .  S
O35          C38   1.270       .  A
O36          C38   1.315       .  A
C38          C90   1.597       .  S
O39          C44   1.281       .  A
O40          C42   1.276       .  A
C41          O43   1.252       .  A
C41        C4242   1.492       .  S
C42        C4290   1.459       .  S
C44         C207   1.561       .  S
Fe45         O61   2.072       .  S
Fe45         O51   2.175       .  S
Fe45         O58   2.171       .  S
Fe45         O50   2.107       .  S
Fe45         O56   1.928       .  S
Fe46         O49   2.099       .  S
Fe46         O53   2.207       .  S
Fe46         O57   2.085       .  S
Fe46         O62   2.178       .  S
Fe46         O56   1.914       .  S
Fe47         O65   1.968       .  S
Fe47         O52   1.997       .  S
Fe47         O59   2.004       .  S
Fe47         O48   2.035       .  S
Fe47         O56   1.904       .  S
O48          C55   1.259       .  A
O49          C63   1.270       .  A
O50          C55   1.283       .  A
O51          C54   1.280       .  A
O52          C64   1.263       .  A
O53          C66   1.298       .  A
C54          O59   1.237       .  A
C54        C4194   1.499       .  S
C55        C4226   1.466       .  S
O57          C60   1.271       .  A
O58          C60   1.283       .  A
C60          C89   1.572       .  S
O61          C66   1.278       .  A
O62          C64   1.301       .  A
C63          O65   1.242       .  A
C63        C4181   1.453       .  S
C64        C4213   1.479       .  S
C66         C159   1.588       .  S
Fe67         O83   2.149       .  S
Fe67         O73   2.177       .  S
Fe67         O80   2.118       .  S
Fe67         O72   2.246       .  S
Fe67         O78   1.905       .  S
Fe68         O71   2.203       .  S
Fe68         O75   2.111       .  S
Fe68         O79   2.153       .  S
Fe68         O84   2.116       .  S
Fe68         O78   1.891   1_545  S
Fe69         O87   1.999   1_565  S
Fe69         O74   1.993   1_565  S
Fe69         O81   1.984       .  S
Fe69         O70   1.996       .  S
Fe69         O78   1.913       .  S
O70          C77   1.262       .  A
O71          C85   1.309       .  A
O72          C77   1.314       .  A
O73          C76   1.266       .  A
O74          C86   1.240       .  A
O75          C88   1.283       .  A
C76          O81   1.222       .  A
C76        C4114   1.499       .  S
C77        C4146   1.501       .  S
O79          C82   1.285   1_545  A
O80          C82   1.290       .  A
C82         C157   1.589       .  S
O83          C88   1.281   1_565  A
O84          C86   1.269       .  A
C85          O87   1.260       .  A
C85        C4130   1.478       .  S
C86        C4165   1.457       .  S
C88          C90   1.596       .  S
C89          C90   1.438   1_565  D
Fe91        O107   2.106       .  S
Fe91         O97   2.186       .  S
Fe91        O104   2.198       .  S
Fe91         O96   2.115       .  S
Fe91        O102   1.913       .  S
Fe92         O95   2.131       .  S
Fe92         O99   2.161       .  S
Fe92        O103   2.083       .  S
Fe92        O108   2.177       .  S
Fe92        O102   1.930       .  S
Fe93        O111   2.002       .  S
Fe93         O98   2.014       .  S
Fe93        O105   1.985       .  S
Fe93         O94   1.990       .  S
Fe93        O102   1.901       .  S
O94         C101   1.244       .  A
O95         C109   1.281       .  A
O96         C101   1.272       .  A
O97         C100   1.303       .  A
O98         C110   1.251       .  A
O99         C112   1.281       .  A
C100        O105   1.260       .  A
C100       C4098   1.475       .  S
C101       C4050   1.464       .  S
O103        C106   1.282       .  A
O104        C106   1.295       .  A
C106        C160   1.591       .  S
O107        C112   1.282       .  A
O108        C110   1.285       .  A
C109        O111   1.250       .  A
C109       C4082   1.479       .  S
C110       C4069   1.508       .  S
C112        C162   1.583       .  S
Fe113       O129   2.118       .  S
Fe113       O119   2.140       .  S
Fe113       O126   2.107       .  S
Fe113       O118   2.174       .  S
Fe113       O124   1.900       .  S
Fe114       O117   2.188       .  S
Fe114       O121   2.104       .  S
Fe114       O125   2.140       .  S
Fe114       O130   2.134       .  S
Fe114       O124   1.902   1_545  S
Fe115       O133   2.024   1_565  S
Fe115       O120   1.973   1_565  S
Fe115       O127   1.992       .  S
Fe115       O116   2.014       .  S
Fe115       O124   1.920       .  S
O116        C123   1.270       .  A
O117        C131   1.307       .  A
O118        C123   1.302       .  A
O119        C122   1.270       .  A
O120        C132   1.237       .  A
O121        C134   1.282       .  A
C122        O127   1.235       .  A
C122       C4002   1.471       .  S
C123       C3986   1.482       .  S
O125        C128   1.281   1_545  A
O126        C128   1.286       .  A
C128        C162   1.566       .  S
O129        C134   1.273   1_565  A
O130        C132   1.268       .  A
C131        O133   1.273       .  A
C131       C4034   1.492       .  S
C132       C4021   1.477       .  S
C134        C158   1.571       .  S
Fe135       O151   2.157       .  S
Fe135       O141   2.232       .  S
Fe135       O148   2.228       .  S
Fe135       O140   2.178       .  S
Fe135       O146   1.892       .  S
Fe136       O139   2.169       .  S
Fe136       O143   2.117       .  S
Fe136       O147   2.053       .  S
Fe136       O152   2.151       .  S
Fe136       O146   1.885       .  S
Fe137       O155   2.010       .  S
Fe137       O142   2.015       .  S
Fe137       O149   2.005       .  S
Fe137       O138   1.999       .  S
Fe137       O146   1.904       .  S
O138        C145   1.236       .  A
O139        C153   1.276       .  A
O140        C145   1.283       .  A
O141        C144   1.315       .  A
O142        C154   1.259       .  A
O143        C156   1.285       .  A
C144        O149   1.259       .  A
C144       C3922   1.494       .  S
C145       C3970   1.496       .  S
O147        C150   1.269       .  A
O148        C150   1.305       .  A
C150        C157   1.587       .  S
O151        C156   1.283       .  A
O152        C154   1.292       .  A
C153        O155   1.232       .  A
C153       C3941   1.495       .  S
C154       C3954   1.462       .  S
C156        C159   1.584       .  S
C157        C158   1.442   1_565  D
C158        C184   1.586       .  S
C159        C160   1.442       .  D
C160        C246   1.583       .  S
C161        C200   1.609       .  S
C161        C274   1.565       .  S
C161        C162   1.443   1_545  D
Fe163       O179   2.078       .  S
Fe163       O169   2.208       .  S
Fe163       O176   2.159       .  S
Fe163       O168   2.144       .  S
Fe163       O174   1.909       .  S
Fe164       O167   2.144       .  S
Fe164       O171   2.175       .  S
Fe164       O175   2.098       .  S
Fe164       O180   2.210       .  S
Fe164       O174   1.894       .  S
Fe165       O183   1.978       .  S
Fe165       O170   2.003       .  S
Fe165       O177   1.994       .  S
Fe165       O166   1.976       .  S
Fe165       O174   1.898       .  S
O166        C173   1.236       .  A
O167        C181   1.273       .  A
O168        C173   1.269       .  A
O169        C172   1.305       .  A
O170        C182   1.262       .  A
O171        C184   1.289       .  A
C172        O177   1.262       .  A
C172       C3906   1.488       .  S
C173       C3874   1.481       .  S
O175        C178   1.283       .  A
O176        C178   1.284       .  A
C178        C207   1.581       .  S
O179        C184   1.278       .  A
O180        C182   1.305       .  A
C181        O183   1.242       .  A
C181       C3893   1.479       .  S
C182       C3858   1.506       .  S
Fe185       O201   2.166       .  S
Fe185       O191   2.174       .  S
Fe185       O198   2.189       .  S
Fe185       O190   2.148       .  S
Fe185       O196   1.938       .  S
Fe186       O189   2.191       .  S
Fe186       O193   2.089       .  S
Fe186       O197   2.125       .  S
Fe186       O202   2.123       .  S
Fe186       O196   1.898       .  S
Fe187       O205   2.053       .  S
Fe187       O192   2.012       .  S
Fe187       O199   1.995       .  S
Fe187       O188   2.020       .  S
Fe187       O196   1.943       .  S
O188        C195   1.246       .  A
O189        C203   1.288       .  A
O190        C195   1.280       .  A
O191        C194   1.300       .  A
O192        C204   1.265       .  A
O193        C206   1.279       .  A
C194        O199   1.264       .  A
C194       C3797   1.480       .  S
C195       C3829   1.484       .  S
O197        C200   1.291       .  A
O198        C200   1.289       .  A
O201        C206   1.286       .  A
O202        C204   1.287       .  A
C203        O205   1.251       .  A
C203       C3810   1.526       .  S
C204       C3842   1.477       .  S
C206        C208   1.582       .  S
C207        C208   1.425       .  D
C208        C224   1.568       .  S
Fe209       O225   2.134       .  S
Fe209       O215   2.217       .  S
Fe209       O222   2.213       .  S
Fe209       O214   2.126       .  S
Fe209       O220   1.922       .  S
Fe210       O213   2.097       .  S
Fe210       O217   2.148       .  S
Fe210       O221   2.063       .  S
Fe210       O226   2.168       .  S
Fe210       O220   1.883       .  S
Fe211       O229   2.014       .  S
Fe211       O216   2.023       .  S
Fe211       O223   1.989       .  S
Fe211       O212   2.024       .  S
Fe211       O220   1.913       .  S
O212        C219   1.248       .  A
O213        C227   1.270       .  A
O214        C219   1.276       .  A
O215        C218   1.305       .  A
O216        C228   1.260       .  A
O217        C230   1.289       .  A
C218        O223   1.246       .  A
C218       C3762   1.492       .  S
C219       C3749   1.480       .  S
O221        C224   1.273       .  A
O222        C224   1.301       .  A
O225        C230   1.280       .  A
O226        C228   1.294       .  A
C227        O229   1.256       .  A
C227       C3778   1.455       .  S
C228       C3733   1.489       .  S
C230        C276   1.574       .  S
Fe231       O247   2.159       .  S
Fe231       O237   2.138       .  S
Fe231       O244   2.086       .  S
Fe231       O236   2.231       .  S
Fe231       O242   1.888       .  S
Fe232       O235   2.183       .  S
Fe232       O239   2.119       .  S
Fe232       O243   2.150       .  S
Fe232       O248   2.166       .  S
Fe232       O242   1.900       .  S
Fe233       O251   2.016       .  S
Fe233       O238   1.974       .  S
Fe233       O245   2.005       .  S
Fe233       O234   2.010       .  S
Fe233       O242   1.906       .  S
O234        C241   1.259       .  A
O235        C249   1.306       .  A
O236        C241   1.313       .  A
O237        C240   1.267       .  A
O238        C250   1.232       .  A
O239        C252   1.288       .  A
C240        O245   1.232       .  A
C240       C3701   1.470       .  S
C241       C3666   1.496       .  S
O243        C246   1.280       .  A
O244        C246   1.278       .  A
O247        C252   1.288       .  A
O248        C250   1.275       .  A
C249        O251   1.275       .  A
C249       C3717   1.491       .  S
C250       C3682   1.480       .  S
C252        C275   1.589       .  S
Fe253       O269   2.198       .  S
Fe253       O259   2.164       .  S
Fe253       O266   2.141       .  S
Fe253       O258   2.184       .  S
Fe253       O264   1.909   1_565  S
Fe254       O257   2.126       .  S
Fe254       O261   2.057       .  S
Fe254       O265   2.141       .  S
Fe254       O270   2.110       .  S
Fe254       O264   1.897       .  S
Fe255       O273   2.011   1_565  S
Fe255       O260   1.996   1_565  S
Fe255       O267   1.982       .  S
Fe255       O256   2.002       .  S
Fe255       O264   1.913   1_565  S
O256        C263   1.259       .  A
O257        C271   1.283       .  A
O258        C263   1.300       .  A
O259        C262   1.286       .  A
O260        C272   1.247       .  A
O261        C274   1.265       .  A
C262        O267   1.244       .  A
C262       C3653   1.487       .  S
C263       C3618   1.489       .  S
O265        C268   1.287       .  A
O266        C268   1.282   1_565  A
C268        C276   1.582       .  S
O269        C274   1.293   1_565  A
O270        C272   1.273       .  A
C271        O273   1.251       .  A
C271       C3637   1.467       .  S
C272       C3602   1.457       .  S
C275        C276   1.447   1_565  D
Fe277       O293   2.143       .  S
Fe277       O283   2.200   1_556  S
Fe277       O290   2.173       .  S
Fe277       O282   2.221   1_556  S
Fe277       O288   1.911       .  S
Fe278       O281   2.138       .  S
Fe278       O285   2.166       .  S
Fe278       O289   2.062       .  S
Fe278       O294   2.161       .  S
Fe278       O288   1.863       .  S
Fe279       O297   2.014       .  S
Fe279       O284   2.033       .  S
Fe279       O291   2.009       .  S
Fe279       O280   1.995   1_556  S
Fe279       O288   1.902       .  S
O280        C287   1.227       .  A
O281        C295   1.278       .  A
O282        C287   1.282       .  A
O283        C286   1.308       .  A
O284        C296   1.259       .  A
O285        C298   1.300       .  A
C286        O291   1.262   1_554  A
C286       C3570   1.476       .  S
C287       C3586   1.522       .  S
O289        C292   1.267       .  A
O290        C292   1.287       .  A
C292        C365   1.567       .  S
O293        C298   1.284       .  A
O294        C296   1.295       .  A
C295        O297   1.244       .  A
C295       C3554   1.475       .  S
C296       C3538   1.463       .  S
C298        C551   1.597       .  S
Fe299       O315   2.152       .  S
Fe299       O305   2.200       .  S
Fe299       O312   2.194       .  S
Fe299       O304   2.158       .  S
Fe299       O310   1.909       .  S
Fe300       O303   2.147       .  S
Fe300       O307   2.109       .  S
Fe300       O311   2.089       .  S
Fe300       O316   2.128       .  S
Fe300       O310   1.888       .  S
Fe301       O319   1.969       .  S
Fe301       O306   2.025       .  S
Fe301       O313   1.997       .  S
Fe301       O302   1.999       .  S
Fe301       O310   1.915       .  S
O302        C309   1.240       .  A
O303        C317   1.275       .  A
O304        C309   1.283       .  A
O305        C308   1.301       .  A
O306        C318   1.269       .  A
O307        C320   1.281       .  A
C308        O313   1.252       .  A
C308       C3506   1.503       .  S
C309       C3493   1.478       .  S
O311        C314   1.279       .  A
O312        C314   1.294       .  A
C314        C483   1.585       .  S
O315        C320   1.285       .  A
O316        C318   1.289       .  A
C317        O319   1.242       .  A
C317       C3522   1.482       .  S
C318       C3474   1.477       .  S
C320        C366   1.584   1_554  S
Fe321       O337   2.102       .  S
Fe321       O327   2.187       .  S
Fe321       O334   2.167       .  S
Fe321       O326   2.130       .  S
Fe321       O332   1.911       .  S
Fe322       O325   2.125   1_556  S
Fe322       O329   2.120       .  S
Fe322       O333   2.089       .  S
Fe322       O338   2.168   1_556  S
Fe322       O332   1.916       .  S
Fe323       O341   2.000   1_556  S
Fe323       O328   2.000       .  S
Fe323       O335   1.976       .  S
Fe323       O324   2.012       .  S
Fe323       O332   1.913       .  S
O324        C331   1.245       .  A
O325        C339   1.268       .  A
O326        C331   1.275       .  A
O327        C330   1.304       .  A
O328        C340   1.264   1_556  A
O329        C342   1.272       .  A
C330        O335   1.261       .  A
C330       C3458   1.470       .  S
C331       C3429   1.482       .  S
O333        C336   1.280       .  A
O334        C336   1.290       .  A
C336        C366   1.582       .  S
O337        C342   1.280       .  A
O338        C340   1.298       .  A
C339        O341   1.244       .  A
C339       C3442   1.468       .  S
C340       C3410   1.492       .  S
C342        C435   1.580       .  S
Fe343       O359   2.155       .  S
Fe343       O349   2.158       .  S
Fe343       O356   2.112       .  S
Fe343       O348   2.179       .  S
Fe343       O354   1.907       .  S
Fe344       O347   2.168       .  S
Fe344       O351   2.081       .  S
Fe344       O355   2.110       .  S
Fe344       O360   2.112       .  S
Fe344       O354   1.917       .  S
Fe345       O363   1.977       .  S
Fe345       O350   2.027       .  S
Fe345       O357   1.979       .  S
Fe345       O346   2.001       .  S
Fe345       O354   1.904       .  S
O346        C353   1.268       .  A
O347        C361   1.293       .  A
O348        C353   1.302       .  A
O349        C352   1.273       .  A
O350        C362   1.247       .  A
O351        C364   1.279       .  A
C352        O357   1.241       .  A
C352       C3378   1.498       .  S
C353       C3346   1.483       .  S
O355        C358   1.273       .  A
O356        C358   1.285       .  A
C358        C433   1.570       .  S
O359        C364   1.282       .  A
O360        C362   1.271       .  A
C361        O363   1.250       .  A
C361       C3394   1.479       .  S
C362       C3362   1.468       .  S
C364        C365   1.585       .  S
C365        C366   1.435       .  D
Fe367       O383   2.126       .  S
Fe367       O373   2.207       .  S
Fe367       O380   2.190       .  S
Fe367       O372   2.166       .  S
Fe367       O378   1.930       .  S
Fe368       O371   2.158       .  S
Fe368       O375   2.102   1_554  S
Fe368       O379   2.075   1_554  S
Fe368       O384   2.101       .  S
Fe368       O378   1.862   1_554  S
Fe369       O387   2.011   1_556  S
Fe369       O374   2.007       .  S
Fe369       O381   2.031       .  S
Fe369       O370   1.989       .  S
Fe369       O378   1.921       .  S
O370        C377   1.235       .  A
O371        C385   1.281       .  A
O372        C377   1.275       .  A
O373        C376   1.305       .  A
O374        C386   1.267       .  A
O375        C388   1.284       .  A
C376        O381   1.259       .  A
C376       C3282   1.488       .  S
C377       C3314   1.490       .  S
O379        C382   1.274       .  A
O380        C382   1.292       .  A
C382        C436   1.579       .  S
O383        C388   1.279       .  A
O384        C386   1.285   1_554  A
C385        O387   1.240       .  A
C385       C3330   1.480       .  S
C386       C3298   1.469   1_556  S
C388        C437   1.562       .  S
Fe389       O405   2.088       .  S
Fe389       O395   2.198       .  S
Fe389       O402   2.225       .  S
Fe389       O394   2.087       .  S
Fe389       O400   1.925       .  S
Fe390       O393   2.118       .  S
Fe390       O397   2.134       .  S
Fe390       O401   2.061       .  S
Fe390       O406   2.098       .  S
Fe390       O400   1.892       .  S
Fe391       O409   2.037       .  S
Fe391       O396   2.031       .  S
Fe391       O403   2.020       .  S
Fe391       O392   2.026       .  S
Fe391       O400   1.917       .  S
O392        C399   1.255       .  A
O393        C407   1.279       .  A
O394        C399   1.274       .  A
O395        C398   1.300       .  A
O396        C408   1.264       .  A
O397        C410   1.288       .  A
C398        O403   1.261       .  A
C398       C3221   1.498       .  S
C399       C3266   1.448       .  S
O401        C404   1.266       .  A
O402        C404   1.299       .  A
C404        C438   1.577       .  S
O405        C410   1.268       .  A
O406        C408   1.281       .  A
C407        O409   1.258       .  A
C407       C3234   1.474       .  S
C408       C3253   1.476       .  S
C410        C434   1.553       .  S
Fe411       O427   2.187       .  S
Fe411       O417   2.111       .  S
Fe411       O424   2.113       .  S
Fe411       O416   2.175       .  S
Fe411       O422   1.921       .  S
Fe412       O415   2.134       .  S
Fe412       O419   2.064       .  S
Fe412       O423   2.137       .  S
Fe412       O428   2.105       .  S
Fe412       O422   1.895       .  S
Fe413       O431   2.016       .  S
Fe413       O418   2.014       .  S
Fe413       O425   2.009       .  S
Fe413       O414   1.996       .  S
Fe413       O422   1.914       .  S
O414        C421   1.258       .  A
O415        C429   1.283       .  A
O416        C421   1.296       .  A
O417        C420   1.276       .  A
O418        C430   1.255       .  A
O419        C432   1.270       .  A
C420        O425   1.253       .  A
C420       C3186   1.459       .  S
C421       C3170   1.487       .  S
O423        C426   1.287       .  A
O424        C426   1.274       .  A
C426        C433   1.570       .  S
O427        C432   1.291       .  A
O428        C430   1.275       .  A
C429        O431   1.259       .  A
C429       C3202   1.475       .  S
C430       C3154   1.460       .  S
C432        C435   1.555       .  S
C433        C434   1.453       .  D
C434        C550   1.568       .  S
C435        C436   1.434       .  D
C436        C476   1.585   1_556  S
C437        C454   1.584   1_556  S
C437        C438   1.427       .  D
C438        C522   1.564       .  S
Fe439       O455   2.067       .  S
Fe439       O445   2.172       .  S
Fe439       O452   2.188       .  S
Fe439       O444   2.128       .  S
Fe439       O450   1.904       .  S
Fe440       O443   2.108       .  S
Fe440       O447   2.193       .  S
Fe440       O451   2.055       .  S
Fe440       O456   2.200       .  S
Fe440       O450   1.907       .  S
Fe441       O459   1.983       .  S
Fe441       O446   1.999       .  S
Fe441       O453   2.008       .  S
Fe441       O442   2.009       .  S
Fe441       O450   1.899       .  S
O442        C449   1.244       .  A
O443        C457   1.271       .  A
O444        C449   1.279       .  A
O445        C448   1.298       .  A
O446        C458   1.252       .  A
O447        C460   1.295       .  A
C448        O453   1.261       .  A
C448       C3093   1.473       .  S
C449       C3122   1.468       .  S
O451        C454   1.268       .  A
O452        C454   1.291       .  A
O455        C460   1.274       .  A
O456        C458   1.298       .  A
C457        O459   1.245       .  A
C457       C3109   1.453       .  S
C458       C3138   1.495       .  S
C460        C484   1.570       .  S
Fe461       O477   2.168       .  S
Fe461       O467   2.109       .  S
Fe461       O474   2.087       .  S
Fe461       O466   2.198       .  S
Fe461       O472   1.899       .  S
Fe462       O465   2.219       .  S
Fe462       O469   2.093       .  S
Fe462       O473   2.144       .  S
Fe462       O478   2.140       .  S
Fe462       O472   1.895       .  S
Fe463       O481   1.995       .  S
Fe463       O468   1.995       .  S
Fe463       O475   1.993       .  S
Fe463       O464   2.001       .  S
Fe463       O472   1.924       .  S
O464        C471   1.261       .  A
O465        C479   1.311       .  A
O466        C471   1.309       .  A
O467        C470   1.268       .  A
O468        C480   1.239       .  A
O469        C482   1.282       .  A
C470        O475   1.241       .  A
C470       C3029   1.453       .  S
C471       C3058   1.489       .  S
O473        C476   1.280       .  A
O474        C476   1.276       .  A
O477        C482   1.288       .  A
O478        C480   1.266       .  A
C479        O481   1.263       .  A
C479       C3045   1.493       .  S
C480       C3074   1.476       .  S
C482        C483   1.582       .  S
C483        C484   1.439       .  D
C484        C506   1.576       .  S
Fe485       O501   2.119       .  S
Fe485       O491   2.207       .  S
Fe485       O498   2.234       .  S
Fe485       O490   2.129       .  S
Fe485       O496   1.912       .  S
Fe486       O489   2.095       .  S
Fe486       O493   2.169       .  S
Fe486       O497   2.063       .  S
Fe486       O502   2.148       .  S
Fe486       O496   1.892       .  S
Fe487       O505   2.024       .  S
Fe487       O492   2.003       .  S
Fe487       O499   2.012       .  S
Fe487       O488   2.036       .  S
Fe487       O496   1.912       .  S
O488        C495   1.255       .  A
O489        C503   1.273       .  A
O490        C495   1.282       .  A
O491        C494   1.302       .  A
O492        C504   1.256       .  A
O493        C506   1.297       .  A
C494        O499   1.254       .  A
C494       C2965   1.495       .  S
C495       C3010   1.481       .  S
O497        C500   1.266       .  A
O498        C500   1.303       .  A
C500        C552   1.577   1_554  S
O501        C506   1.277       .  A
O502        C504   1.292       .  A
C503        O505   1.253       .  A
C503       C2981   1.452       .  S
C504       C2994   1.473       .  S
Fe507       O523   2.178       .  S
Fe507       O513   2.108       .  S
Fe507       O520   2.084       .  S
Fe507       O512   2.200       .  S
Fe507       O518   1.906       .  S
Fe508       O511   2.209       .  S
Fe508       O515   2.156   1_554  S
Fe508       O519   2.122   1_554  S
Fe508       O524   2.201       .  S
Fe508       O518   1.903   1_554  S
Fe509       O527   2.006       .  S
Fe509       O514   2.013   1_556  S
Fe509       O521   2.020       .  S
Fe509       O510   2.027       .  S
Fe509       O518   1.925       .  S
O510        C517   1.263       .  A
O511        C525   1.307       .  A
O512        C517   1.308       .  A
O513        C516   1.270       .  A
O514        C526   1.229       .  A
O515        C528   1.299       .  A
C516        O521   1.248       .  A
C516       C2901   1.467       .  S
C517       C2930   1.490       .  S
O519        C522   1.274       .  A
O520        C522   1.276       .  A
O523        C528   1.291       .  A
O524        C526   1.273       .  A
C525        O527   1.267   1_554  A
C525       C2914   1.485       .  S
C526       C2946   1.522       .  S
C528        C552   1.609       .  S
Fe529       O545   2.112       .  S
Fe529       O535   2.192       .  S
Fe529       O542   2.192       .  S
Fe529       O534   2.125       .  S
Fe529       O540   1.898       .  S
Fe530       O533   2.162       .  S
Fe530       O537   2.084       .  S
Fe530       O541   2.088       .  S
Fe530       O546   2.175       .  S
Fe530       O540   1.930       .  S
Fe531       O549   1.995       .  S
Fe531       O536   1.994       .  S
Fe531       O543   2.003       .  S
Fe531       O532   1.959       .  S
Fe531       O540   1.912       .  S
O532        C539   1.239       .  A
O533        C547   1.267       .  A
O534        C539   1.274       .  A
O535        C538   1.308       .  A
O536        C548   1.250       .  A
O537        C550   1.261       .  A
C538        O543   1.264       .  A
C538       C2850   1.481       .  S
C539       C2885   1.464       .  S
O541        C544   1.284       .  A
O542        C544   1.298       .  A
C544        C551   1.585       .  S
O545        C550   1.280       .  A
O546        C548   1.291       .  A
C547        O549   1.232       .  A
C547       C2834   1.499       .  S
C548       C2866   1.478       .  S
C551        C552   1.452       .  D
Fe553       O569   2.092       .  S
Fe553       O559   2.141       .  S
Fe553       O566   2.130       .  S
Fe553       O558   2.135       .  S
Fe553       O564   1.892       .  S
Fe554       O557   2.119   1_655  S
Fe554       O561   2.214       .  S
Fe554       O565   2.129       .  S
Fe554       O570   2.183   1_655  S
Fe554       O564   1.931       .  S
Fe555       O573   2.041   1_655  S
Fe555       O560   2.000       .  S
Fe555       O567   2.011       .  S
Fe555       O556   2.015       .  S
Fe555       O564   1.916       .  S
O556        C563   1.249       .  A
O557        C571   1.281       .  A
O558        C563   1.278       .  A
O559        C562   1.290       .  A
O560        C572   1.250   1_655  A
O561        C574   1.299       .  A
C562        O567   1.263       .  A
C562       C2773   1.490       .  S
C563       C2786   1.477       .  S
O565        C568   1.277       .  A
O566        C568   1.286       .  A
C568        C827   1.573       .  S
O569        C574   1.280       .  A
O570        C572   1.295       .  A
C571        O573   1.257       .  A
C571       C2818   1.476       .  S
C572       C2802   1.480       .  S
C574        C641   1.584       .  S
Fe575       O591   2.130       .  S
Fe575       O581   2.225       .  S
Fe575       O588   2.230       .  S
Fe575       O580   2.125       .  S
Fe575       O586   1.912       .  S
Fe576       O579   2.124       .  S
Fe576       O583   2.136       .  S
Fe576       O587   2.069       .  S
Fe576       O592   2.163       .  S
Fe576       O586   1.886       .  S
Fe577       O595   2.023       .  S
Fe577       O582   2.016       .  S
Fe577       O589   1.999       .  S
Fe577       O578   2.011       .  S
Fe577       O586   1.900       .  S
O578        C585   1.244       .  A
O579        C593   1.275       .  A
O580        C585   1.276       .  A
O581        C584   1.309       .  A
O582        C594   1.254       .  A
O583        C596   1.290       .  A
C584        O589   1.252       .  A
C584       C2754   1.495       .  S
C585       C2706   1.468       .  S
O587        C590   1.273       .  A
O588        C590   1.304       .  A
C590        C759   1.579       .  S
O591        C596   1.279       .  A
O592        C594   1.290       .  A
C593        O595   1.255       .  A
C593       C2738   1.476       .  S
C594       C2722   1.475       .  S
C596        C642   1.564   1_455  S
Fe597       O613   2.137       .  S
Fe597       O603   2.121       .  S
Fe597       O610   2.083       .  S
Fe597       O602   2.186       .  S
Fe597       O608   1.893       .  S
Fe598       O601   2.237       .  S
Fe598       O605   2.107       .  S
Fe598       O609   2.184       .  S
Fe598       O614   2.154       .  S
Fe598       O608   1.898       .  S
Fe599       O617   1.984       .  S
Fe599       O604   2.005       .  S
Fe599       O611   2.025       .  S
Fe599       O600   2.005       .  S
Fe599       O608   1.908       .  S
O600        C607   1.263       .  A
O601        C615   1.314       .  A
O602        C607   1.307       .  A
O603        C606   1.268       .  A
O604        C616   1.230       .  A
O605        C618   1.283       .  A
C606        O611   1.246       .  A
C606       C2674   1.474       .  S
C607       C2642   1.472       .  S
O609        C612   1.291       .  A
O610        C612   1.276       .  A
C612        C713   1.597       .  S
O613        C618   1.280       .  A
O614        C616   1.270       .  A
C615        O617   1.257       .  A
C615       C2690   1.494       .  S
C616       C2658   1.484       .  S
C618        C641   1.579       .  S
Fe619       O635   2.097       .  S
Fe619       O625   2.192       .  S
Fe619       O632   2.156       .  S
Fe619       O624   2.179       .  S
Fe619       O630   1.911       .  S
Fe620       O623   2.104   1_655  S
Fe620       O627   2.168       .  S
Fe620       O631   2.086       .  S
Fe620       O636   2.168   1_655  S
Fe620       O630   1.905       .  S
Fe621       O639   1.998       .  S
Fe621       O626   1.996       .  S
Fe621       O633   2.004       .  S
Fe621       O622   1.992       .  S
Fe621       O630   1.908       .  S
O622        C629   1.228       .  A
O623        C637   1.269       .  A
O624        C629   1.279       .  A
O625        C628   1.297       .  A
O626        C638   1.265   1_655  A
O627        C640   1.287       .  A
C628        O633   1.263       .  A
C628       C2626   1.490       .  S
C629       C2597   1.501       .  S
O631        C634   1.276       .  A
O632        C634   1.281       .  A
C634        C642   1.583       .  S
O635        C640   1.284       .  A
O636        C638   1.301       .  A
C637        O639   1.245   1_455  A
C637       C2610   1.456       .  S
C638       C2578   1.474       .  S
C640        C711   1.599       .  S
C641        C642   1.442       .  D
Fe643       O659   2.130       .  S
Fe643       O649   2.235       .  S
Fe643       O656   2.217       .  S
Fe643       O648   2.150       .  S
Fe643       O654   1.907       .  S
Fe644       O647   2.160       .  S
Fe644       O651   2.089       .  S
Fe644       O655   2.077       .  S
Fe644       O660   2.088       .  S
Fe644       O654   1.869       .  S
Fe645       O663   1.986       .  S
Fe645       O650   2.029       .  S
Fe645       O657   1.998       .  S
Fe645       O646   2.007       .  S
Fe645       O654   1.921       .  S
O646        C653   1.233       .  A
O647        C661   1.282       .  A
O648        C653   1.275       .  A
O649        C652   1.312       .  A
O650        C662   1.271       .  A
O651        C664   1.277       .  A
C652        O657   1.251       .  A
C652       C2562   1.489       .  S
C653       C2514   1.475       .  S
O655        C658   1.275       .  A
O656        C658   1.300       .  A
C658        C713   1.598       .  S
O659        C664   1.275       .  A
O660        C662   1.282       .  A
C661        O663   1.239       .  A
C661       C2546   1.485       .  S
C662       C2530   1.464       .  S
C664        C711   1.581       .  S
Fe665       O681   2.144       .  S
Fe665       O671   2.224       .  S
Fe665       O678   2.158       .  S
Fe665       O670   2.199       .  S
Fe665       O676   1.918       .  S
Fe666       O669   2.145       .  S
Fe666       O673   2.137       .  S
Fe666       O677   2.091       .  S
Fe666       O682   2.166       .  S
Fe666       O676   1.862       .  S
Fe667       O685   1.983       .  S
Fe667       O672   2.005       .  S
Fe667       O679   2.000       .  S
Fe667       O668   1.983       .  S
Fe667       O676   1.911       .  S
O668        C675   1.234       .  A
O669        C683   1.275       .  A
O670        C675   1.272       .  A
O671        C674   1.306       .  A
O672        C684   1.255       .  A
O673        C686   1.293       .  A
C674        O679   1.253       .  A
C674       C2466   1.493       .  S
C675       C2482   1.519       .  S
O677        C680   1.278       .  A
O678        C680   1.285       .  A
C680        C709   1.560       .  S
O681        C686   1.284       .  A
O682        C684   1.297       .  A
C683        O685   1.238       .  A
C683       C2450   1.473       .  S
C684       C2498   1.467       .  S
C686        C714   1.589       .  S
Fe687       O703   2.181       .  S
Fe687       O693   2.114       .  S
Fe687       O700   2.113       .  S
Fe687       O692   2.180       .  S
Fe687       O698   1.945       .  S
Fe688       O691   2.138   1_655  S
Fe688       O695   2.103       .  S
Fe688       O699   2.157       .  S
Fe688       O704   2.143   1_655  S
Fe688       O698   1.888       .  S
Fe689       O707   2.029       .  S
Fe689       O694   2.023       .  S
Fe689       O701   2.000       .  S
Fe689       O690   2.001       .  S
Fe689       O698   1.919       .  S
O690        C697   1.259       .  A
O691        C705   1.288   1_455  A
O692        C697   1.295       .  A
O693        C696   1.273       .  A
O694        C706   1.250   1_655  A
O695        C708   1.280       .  A
C696        O701   1.244       .  A
C696       C2386   1.456       .  S
C697       C2418   1.487       .  S
O699        C702   1.296       .  A
O700        C702   1.273       .  A
C702        C712   1.595       .  S
O703        C708   1.287       .  A
O704        C706   1.284       .  A
C705        O707   1.264       .  A
C705       C2434   1.472   1_655  S
C706       C2405   1.488       .  S
C708        C710   1.584       .  S
C709        C820   1.594       .  S
C709        C710   1.444       .  D
C710        C758   1.570   1_655  S
C711        C712   1.456       .  D
C712        C730   1.565   1_655  S
C713        C714   1.442       .  D
C714        C804   1.583       .  S
Fe715       O731   2.153       .  S
Fe715       O721   2.123       .  S
Fe715       O728   2.074       .  S
Fe715       O720   2.204       .  S
Fe715       O726   1.890       .  S
Fe716       O719   2.181       .  S
Fe716       O723   2.126       .  S
Fe716       O727   2.131       .  S
Fe716       O732   2.159       .  S
Fe716       O726   1.905       .  S
Fe717       O735   2.025       .  S
Fe717       O722   1.980       .  S
Fe717       O729   1.993       .  S
Fe717       O718   2.036       .  S
Fe717       O726   1.914       .  S
O718        C725   1.274       .  A
O719        C733   1.307       .  A
O720        C725   1.309       .  A
O721        C724   1.266       .  A
O722        C734   1.230       .  A
O723        C736   1.287       .  A
C724        O729   1.237       .  A
C724       C2322   1.464       .  S
C725       C2354   1.495       .  S
O727        C730   1.278       .  A
O728        C730   1.275       .  A
O731        C736   1.284       .  A
O732        C734   1.272       .  A
C733        O735   1.273       .  A
C733       C2341   1.493       .  S
C734       C2370   1.481       .  S
C736        C759   1.596       .  S
Fe737       O753   2.089       .  S
Fe737       O743   2.212       .  S
Fe737       O750   2.145       .  S
Fe737       O742   2.141       .  S
Fe737       O748   1.888       .  S
Fe738       O741   2.148       .  S
Fe738       O745   2.137       .  S
Fe738       O749   2.100       .  S
Fe738       O754   2.157       .  S
Fe738       O748   1.905       .  S
Fe739       O757   2.002       .  S
Fe739       O744   2.006       .  S
Fe739       O751   2.009       .  S
Fe739       O740   1.999       .  S
Fe739       O748   1.912       .  S
O740        C747   1.236       .  A
O741        C755   1.273       .  A
O742        C747   1.270       .  A
O743        C746   1.312       .  A
O744        C756   1.264       .  A
O745        C758   1.280       .  A
C746        O751   1.270       .  A
C746       C2306   1.502       .  S
C747       C2274   1.471       .  S
O749        C752   1.279       .  A
O750        C752   1.281       .  A
C752        C760   1.581       .  S
O753        C758   1.282       .  A
O754        C756   1.300       .  A
C755        O757   1.242       .  A
C755       C2293   1.487       .  S
C756       C2258   1.455       .  S
C759        C760   1.446       .  D
C760        C782   1.578       .  S
Fe761       O777   2.135       .  S
Fe761       O767   2.207       .  S
Fe761       O774   2.211       .  S
Fe761       O766   2.143       .  S
Fe761       O772   1.920       .  S
Fe762       O765   2.094       .  S
Fe762       O769   2.149       .  S
Fe762       O773   2.074       .  S
Fe762       O778   2.155       .  S
Fe762       O772   1.890       .  S
Fe763       O781   1.981       .  S
Fe763       O768   1.997       .  S
Fe763       O775   2.010       .  S
Fe763       O764   2.031       .  S
Fe763       O772   1.915       .  S
O764        C771   1.254       .  A
O765        C779   1.268       .  A
O766        C771   1.284       .  A
O767        C770   1.299       .  A
O768        C780   1.262       .  A
O769        C782   1.294       .  A
C770        O775   1.248       .  A
C770       C2213   1.497       .  S
C771       C2226   1.486       .  S
O773        C776   1.271       .  A
O774        C776   1.298       .  A
C776        C828   1.577   1_455  S
O777        C782   1.282       .  A
O778        C780   1.293       .  A
C779        O781   1.244       .  A
C779       C2194   1.444       .  S
C780       C2245   1.466       .  S
Fe783       O799   2.062       .  S
Fe783       O789   2.176       .  S
Fe783       O796   2.183       .  S
Fe783       O788   2.132       .  S
Fe783       O794   1.891       .  S
Fe784       O787   2.100       .  S
Fe784       O791   2.179       .  S
Fe784       O795   2.057       .  S
Fe784       O800   2.180       .  S
Fe784       O794   1.902       .  S
Fe785       O803   2.021       .  S
Fe785       O790   1.999       .  S
Fe785       O797   1.997       .  S
Fe785       O786   2.030       .  S
Fe785       O794   1.915       .  S
O786        C793   1.249       .  A
O787        C801   1.268       .  A
O788        C793   1.278       .  A
O789        C792   1.302       .  A
O790        C802   1.262       .  A
O791        C804   1.289       .  A
C792        O797   1.262       .  A
C792       C2149   1.487       .  S
C793       C2178   1.486       .  S
O795        C798   1.269       .  A
O796        C798   1.292       .  A
C798        C827   1.579       .  S
O799        C804   1.270       .  A
O800        C802   1.302       .  A
C801        O803   1.249       .  A
C801       C2130   1.457       .  S
C802       C2165   1.469       .  S
Fe805       O821   2.142       .  S
Fe805       O811   2.167       .  S
Fe805       O818   2.138       .  S
Fe805       O810   2.175       .  S
Fe805       O816   1.911       .  S
Fe806       O809   2.192   1_655  S
Fe806       O813   2.100       .  S
Fe806       O817   2.155       .  S
Fe806       O822   2.106   1_655  S
Fe806       O816   1.918       .  S
Fe807       O825   2.016       .  S
Fe807       O812   2.000       .  S
Fe807       O819   2.016       .  S
Fe807       O808   2.009       .  S
Fe807       O816   1.925       .  S
O808        C815   1.269       .  A
O809        C823   1.307       .  A
O810        C815   1.298       .  A
O811        C814   1.280       .  A
O812        C824   1.241   1_655  A
O813        C826   1.279       .  A
C814        O819   1.240       .  A
C814       C2066   1.497       .  S
C815       C2101   1.496       .  S
O817        C820   1.285       .  A
O818        C820   1.291       .  A
O821        C826   1.280       .  A
O822        C824   1.266       .  A
C823        O825   1.274   1_455  A
C823       C2082   1.497       .  S
C824       C2114   1.458       .  S
C826        C828   1.575       .  S
C827        C828   1.432       .  D
Fe829       O845   2.216       .  S
Fe829       O835   2.142   1_556  S
Fe829       O842   2.100       .  S
Fe829       O834   2.210   1_556  S
Fe829       O840   1.904       .  S
Fe830       O833   2.070       .  S
Fe830       O837   2.040       .  S
Fe830       O841   2.119       .  S
Fe830       O846   2.118       .  S
Fe830       O840   1.883       .  S
Fe831       O849   2.026       .  S
Fe831       O836   2.028       .  S
Fe831       O843   2.005   1_556  S
Fe831       O832   2.006       .  S
Fe831       O840   1.897       .  S
O832        C839   1.254       .  A
O833        C847   1.280       .  A
O834        C839   1.304   1_554  A
O835        C838   1.278       .  A
O836        C848   1.255       .  A
O837        C850   1.257       .  A
C838        O843   1.243       .  A
C838       C2050   1.476       .  S
C839       C2034   1.497   1_556  S
O841        C844   1.282       .  A
O842        C844   1.273       .  A
C844       C1036   1.549   1_455  S
O845        C850   1.297       .  A
O846        C848   1.279       .  A
C847        O849   1.259       .  A
C847       C2005   1.441       .  S
C848       C2018   1.470       .  S
C850        C895   1.559       .  S
Fe851       O867   2.137       .  S
Fe851       O857   2.176       .  S
Fe851       O864   2.145       .  S
Fe851       O856   2.202       .  S
Fe851       O862   1.925       .  S
Fe852       O855   2.161       .  S
Fe852       O859   2.103   1_554  S
Fe852       O863   2.080   1_554  S
Fe852       O868   2.095       .  S
Fe852       O862   1.867   1_554  S
Fe853       O871   2.030   1_556  S
Fe853       O858   2.011       .  S
Fe853       O865   2.008       .  S
Fe853       O854   2.006       .  S
Fe853       O862   1.922       .  S
O854        C861   1.228       .  A
O855        C869   1.282       .  A
O856        C861   1.280       .  A
O857        C860   1.299       .  A
O858        C870   1.265   1_556  A
O859        C872   1.286       .  A
C860        O865   1.258       .  A
C860       C1970   1.484       .  S
C861       C1941   1.512       .  S
O863        C866   1.274       .  A
O864        C866   1.279       .  A
C866        C987   1.562   1_455  S
O867        C872   1.283       .  A
O868        C870   1.285       .  A
C869        O871   1.247       .  A
C869       C1986   1.494       .  S
C870       C1954   1.463       .  S
C872        C896   1.562       .  S
Fe873       O889   2.153       .  S
Fe873       O879   2.144       .  S
Fe873       O886   2.223       .  S
Fe873       O878   2.175       .  S
Fe873       O884   1.921   1_565  S
Fe874       O877   2.110       .  S
Fe874       O881   2.031       .  S
Fe874       O885   2.122       .  S
Fe874       O890   2.135       .  S
Fe874       O884   1.915       .  S
Fe875       O893   2.076       .  S
Fe875       O880   1.995       .  S
Fe875       O887   2.052   1_545  S
Fe875       O876   1.997   1_545  S
Fe875       O884   1.883       .  S
O876        C883   1.233       .  A
O877        C891   1.290       .  A
O878        C883   1.275       .  A
O879        C882   1.297       .  A
O880        C892   1.229       .  A
O881        C894   1.256       .  A
C882        O887   1.271       .  A
C882       C1890   1.508       .  S
C883       C1922   1.506       .  S
O885        C888   1.305       .  A
O886        C888   1.315   1_565  A
C888        C895   1.607       .  S
O889        C894   1.271   1_565  A
O890        C892   1.259       .  A
C891        O893   1.283       .  A
C891       C1877   1.486       .  S
C892       C1906   1.495       .  S
C894        C985   1.579   1_455  S
C895        C896   1.426   1_545  D
C896        C918   1.571   1_556  S
Fe897       O913   2.085       .  S
Fe897       O903   2.155       .  S
Fe897       O910   2.141       .  S
Fe897       O902   2.105       .  S
Fe897       O908   1.903       .  S
Fe898       O901   2.124       .  S
Fe898       O905   2.192       .  S
Fe898       O909   2.112       .  S
Fe898       O914   2.166       .  S
Fe898       O908   1.939   1_545  S
Fe899       O917   2.001   1_565  S
Fe899       O904   2.014   1_565  S
Fe899       O911   1.993       .  S
Fe899       O900   2.003       .  S
Fe899       O908   1.909       .  S
O900        C907   1.249       .  A
O901        C915   1.284       .  A
O902        C907   1.272       .  A
O903        C906   1.289       .  A
O904        C916   1.254       .  A
O905        C918   1.291   1_545  A
C906        O911   1.258       .  A
C906       C1829   1.470       .  S
C907       C1813   1.459       .  S
O909        C912   1.278   1_545  A
O910        C912   1.292       .  A
C912       C1103   1.552   1_455  S
O913        C918   1.275       .  A
O914        C916   1.289       .  A
C915        O917   1.250       .  A
C915       C1845   1.467       .  S
C916       C1858   1.481       .  S
Fe919       O935   2.044       .  S
Fe919       O925   2.130       .  S
Fe919       O932   2.065       .  S
Fe919       O924   2.115       .  S
Fe919       O930   1.886       .  S
Fe920       O923   2.177   1_556  S
Fe920       O927   2.156       .  S
Fe920       O931   2.167       .  S
Fe920       O936   2.141   1_556  S
Fe920       O930   1.941       .  S
Fe921       O939   2.013       .  S
Fe921       O926   1.997   1_556  S
Fe921       O933   2.006       .  S
Fe921       O922   2.039       .  S
Fe921       O930   1.917       .  S
O922        C929   1.277       .  A
O923        C937   1.299       .  A
O924        C929   1.289       .  A
O925        C928   1.271       .  A
O926        C938   1.236       .  A
O927        C940   1.280       .  A
C928        O933   1.238       .  A
C928       C1778   1.470       .  S
C929       C1746   1.464       .  S
O931        C934   1.286       .  A
O932        C934   1.276       .  A
C934        C989   1.572       .  S
O935        C940   1.267       .  A
O936        C938   1.276       .  A
C937        O939   1.259   1_554  A
C937       C1762   1.480       .  S
C938       C1794   1.472       .  S
C940        C988   1.577       .  S
Fe941       O957   2.102       .  S
Fe941       O947   2.150       .  S
Fe941       O954   2.135       .  S
Fe941       O946   2.134       .  S
Fe941       O952   1.872       .  S
Fe942       O945   2.202       .  S
Fe942       O949   2.160       .  S
Fe942       O953   2.151       .  S
Fe942       O958   2.203       .  S
Fe942       O952   1.919   1_545  S
Fe943       O961   2.006   1_565  S
Fe943       O948   1.985   1_565  S
Fe943       O955   2.020       .  S
Fe943       O944   2.029       .  S
Fe943       O952   1.907       .  S
O944        C951   1.255       .  A
O945        C959   1.281       .  A
O946        C951   1.281       .  A
O947        C950   1.290       .  A
O948        C960   1.257       .  A
O949        C962   1.282   1_545  A
C950        O955   1.252       .  A
C950       C1685   1.476       .  S
C951       C1698   1.479       .  S
O953        C956   1.290   1_545  A
O954        C956   1.291       .  A
C956        C986   1.575       .  S
O957        C962   1.280       .  A
O958        C960   1.302       .  A
C959        O961   1.229       .  A
C959       C1714   1.515       .  S
C960       C1730   1.479       .  S
C962        C989   1.574       .  S
Fe963       O979   2.109       .  S
Fe963       O969   2.164       .  S
Fe963       O976   2.122       .  S
Fe963       O968   2.182       .  S
Fe963       O974   1.876       .  S
Fe964       O967   2.151   1_655  S
Fe964       O971   2.144       .  S
Fe964       O975   2.133       .  S
Fe964       O980   2.146   1_655  S
Fe964       O974   1.937       .  S
Fe965       O983   2.018   1_655  S
Fe965       O970   1.991       .  S
Fe965       O977   2.028       .  S
Fe965       O966   1.982       .  S
Fe965       O974   1.904       .  S
O966        C973   1.226       .  A
O967        C981   1.280       .  A
O968        C973   1.278       .  A
O969        C972   1.299       .  A
O970        C982   1.250   1_655  A
O971        C984   1.285       .  A
C972        O977   1.278       .  A
C972       C1650   1.486       .  S
C973       C1618   1.504       .  S
O975        C978   1.272       .  A
O976        C978   1.289       .  A
C978        C988   1.602       .  S
O979        C984   1.285       .  A
O980        C982   1.293       .  A
C981        O983   1.242       .  A
C981       C1637   1.477       .  S
C982       C1666   1.467       .  S
C984        C986   1.571       .  S
C985       C1028   1.578       .  S
C985        C986   1.436   1_545  D
C987       C1080   1.590   1_556  S
C987        C988   1.456       .  D
C989        C990   1.436   1_565  D
C990       C1012   1.589       .  S
C990       C1096   1.569   1_556  S
Fe991      O1007   2.135       .  S
Fe991       O997   2.196       .  S
Fe991      O1004   2.133       .  S
Fe991       O996   2.213       .  S
Fe991      O1002   1.923       .  S
Fe992       O995   2.127   1_556  S
Fe992       O999   2.140       .  S
Fe992      O1003   2.074       .  S
Fe992      O1008   2.140   1_556  S
Fe992      O1002   1.869       .  S
Fe993      O1011   2.006       .  S
Fe993       O998   2.026       .  S
Fe993      O1005   1.995       .  S
Fe993       O994   1.996       .  S
Fe993      O1002   1.900       .  S
O994       C1001   1.219       .  A
O995       C1009   1.277       .  A
O996       C1001   1.278       .  A
O997       C1000   1.298       .  A
O998       C1010   1.263       .  A
O999       C1012   1.295       .  A
C1000      O1005   1.256       .  A
C1000      C1573   1.491       .  S
C1001      C1602   1.514       .  S
O1003      C1006   1.273       .  A
O1004      C1006   1.279       .  A
C1006      C1035   1.540       .  S
O1007      C1012   1.282       .  A
O1008      C1010   1.294   1_554  A
C1009      O1011   1.247   1_554  A
C1009      C1554   1.469       .  S
C1010      C1586   1.459   1_556  S
Fe1013     O1029   2.162       .  S
Fe1013     O1019   2.177       .  S
Fe1013     O1026   2.165       .  S
Fe1013     O1018   2.155       .  S
Fe1013     O1024   1.935       .  S
Fe1014     O1017   2.165   1_655  S
Fe1014     O1021   2.099       .  S
Fe1014     O1025   2.090       .  S
Fe1014     O1030   2.102   1_655  S
Fe1014     O1024   1.874       .  S
Fe1015     O1033   1.992       .  S
Fe1015     O1020   2.034       .  S
Fe1015     O1027   1.993       .  S
Fe1015     O1016   2.003       .  S
Fe1015     O1024   1.915       .  S
O1016      C1023   1.241       .  A
O1017      C1031   1.282       .  A
O1018      C1023   1.281       .  A
O1019      C1022   1.294       .  A
O1020      C1032   1.273       .  A
O1021      C1034   1.279       .  A
C1022      O1027   1.250       .  A
C1022      C1522   1.490       .  S
C1023      C1490   1.477       .  S
O1025      C1028   1.281       .  A
O1026      C1028   1.284       .  A
O1029      C1034   1.288       .  A
O1030      C1032   1.283   1_455  A
C1031      O1033   1.238   1_455  A
C1031      C1538   1.495       .  S
C1032      C1506   1.469   1_655  S
C1034      C1036   1.584       .  S
C1035      C1052   1.587   1_556  S
C1035      C1036   1.432       .  D
Fe1037     O1053   2.091       .  S
Fe1037     O1043   2.139       .  S
Fe1037     O1050   2.141       .  S
Fe1037     O1042   2.112       .  S
Fe1037     O1048   1.914       .  S
Fe1038     O1041   2.134   1_655  S
Fe1038     O1045   2.190       .  S
Fe1038     O1049   2.147       .  S
Fe1038     O1054   2.181   1_655  S
Fe1038     O1048   1.947       .  S
Fe1039     O1057   2.028   1_655  S
Fe1039     O1044   2.012       .  S
Fe1039     O1051   2.016       .  S
Fe1039     O1040   1.990       .  S
Fe1039     O1048   1.927       .  S
O1040      C1047   1.249       .  A
O1041      C1055   1.288       .  A
O1042      C1047   1.274       .  A
O1043      C1046   1.286       .  A
O1044      C1056   1.252   1_655  A
O1045      C1058   1.290       .  A
C1046      O1051   1.264       .  A
C1046      C1442   1.476       .  S
C1047      C1426   1.463       .  S
O1049      C1052   1.287       .  A
O1050      C1052   1.289       .  A
O1053      C1058   1.277       .  A
O1054      C1056   1.287       .  A
C1055      O1057   1.257       .  A
C1055      C1458   1.478       .  S
C1056      C1477   1.517       .  S
C1058      C1104   1.577       .  S
Fe1059     O1075   2.115       .  S
Fe1059     O1065   2.168       .  S
Fe1059     O1072   2.168       .  S
Fe1059     O1064   2.146       .  S
Fe1059     O1070   1.922       .  S
Fe1060     O1063   2.125   1_655  S
Fe1060     O1067   2.168       .  S
Fe1060     O1071   2.082       .  S
Fe1060     O1076   2.195   1_655  S
Fe1060     O1070   1.878       .  S
Fe1061     O1079   2.022       .  S
Fe1061     O1066   2.003       .  S
Fe1061     O1073   1.991       .  S
Fe1061     O1062   2.024       .  S
Fe1061     O1070   1.916       .  S
O1062      C1069   1.249       .  A
O1063      C1077   1.274       .  A
O1064      C1069   1.279       .  A
O1065      C1068   1.296       .  A
O1066      C1078   1.259       .  A
O1067      C1080   1.299       .  A
C1068      O1073   1.254       .  A
C1068      C1378   1.474       .  S
C1069      C1413   1.483       .  S
O1071      C1074   1.279       .  A
O1072      C1074   1.290       .  A
C1074      C1103   1.553       .  S
O1075      C1080   1.273       .  A
O1076      C1078   1.303   1_455  A
C1077      O1079   1.244   1_455  A
C1077      C1362   1.474       .  S
C1078      C1394   1.484   1_655  S
Fe1081     O1097   2.163       .  S
Fe1081     O1087   2.205       .  S
Fe1081     O1094   2.197       .  S
Fe1081     O1086   2.156       .  S
Fe1081     O1092   1.906   1_565  S
Fe1082     O1085   2.131       .  S
Fe1082     O1089   2.063       .  S
Fe1082     O1093   2.047       .  S
Fe1082     O1098   2.074       .  S
Fe1082     O1092   1.903       .  S
Fe1083     O1101   2.022       .  S
Fe1083     O1088   2.003       .  S
Fe1083     O1095   1.997   1_545  S
Fe1083     O1084   1.966   1_545  S
Fe1083     O1092   1.911       .  S
O1084      C1091   1.237       .  A
O1085      C1099   1.281       .  A
O1086      C1091   1.278       .  A
O1087      C1090   1.308       .  A
O1088      C1100   1.250       .  A
O1089      C1102   1.270       .  A
C1090      O1095   1.265       .  A
C1090      C1333   1.487       .  S
C1091      C1301   1.478       .  S
O1093      C1096   1.269       .  A
O1094      C1096   1.295   1_565  A
O1097      C1102   1.286   1_565  A
O1098      C1100   1.269       .  A
C1099      O1101   1.253       .  A
C1099      C1346   1.478       .  S
C1100      C1314   1.447       .  S
C1102      C1104   1.558       .  S
C1103      C1104   1.420   1_565  D
C1105      C3621   1.490       .  S
C1105      C1106   1.436       .  A
C1105      C1110   1.428       .  A
C1106      C3698   1.504       .  S
C1106      C1107   1.413       .  A
C1107      C2357   1.512       .  S
C1107      C1108   1.425       .  A
C1108      C2402   1.490       .  S
C1108      C1109   1.424       .  A
C1109      C1634   1.502       .  S
C1109      C1110   1.428       .  A
C1110      C1893   1.520       .  S
C1111      C4037   1.510       .  S
C1111      C1112   1.426       .  A
C1111      C1116   1.415       .  A
C1112      C3909   1.495       .  S
C1112      C1113   1.427       .  A
C1113      C2181   1.506       .  S
C1113      C1114   1.426       .  A
C1114      C2069   1.496       .  S
C1114      C1115   1.414       .  A
C1115      C1493   1.501       .  S
C1115      C1116   1.427       .  A
C1116      C1733   1.487       .  S
C1117      C4117   1.510       .  S
C1117      C1118   1.441       .  A
C1117      C1122   1.430       .  A
C1118      C4229   1.494       .  S
C1118      C1119   1.425       .  A
C1119      C3141   1.520       .  S
C1119      C1120   1.422       .  A
C1120      C3333   1.484       .  S
C1120      C1121   1.413       .  A
C1121      C1797   1.494       .  S
C1121      C1122   1.422       .  A
C1122      C1298   1.518       .  S
C1123      C3301   1.484       .  S
C1123      C1124   1.432       .  A
C1123      C1128   1.411       .  A
C1124      C3061   1.518       .  S
C1124      C1125   1.428       .  A
C1125      C2677   1.499       .  S
C1125      C1126   1.422       .  A
C1126      C2594   1.500       .  S
C1126      C1127   1.412       .  A
C1127      C1381   1.480       .  S
C1127      C1128   1.417       .  A
C1128      C1765   1.513       .  S
C1129      C3605   1.490       .  S
C1129      C1130   1.426       .  A
C1129      C1134   1.433       .  A
C1130      C3781   1.512       .  S
C1130      C1131   1.412       .  A
C1131      C2242   1.491       .  S
C1131      C1132   1.422       .  A
C1132      C2085   1.506       .  S
C1132      C1133   1.427       .  A
C1133      C1509   1.488       .  S
C1133      C1134   1.432       .  A
C1134      C1874   1.531       .  S
C1135      C3445   1.497       .  S
C1135      C1136   1.426       .  A
C1135      C1140   1.400       .  A
C1136      C3077   1.491       .  S
C1136      C1137   1.433       .  A
C1137      C2693   1.528       .  S
C1137      C1138   1.436       .  A
C1138      C2770   1.494       .  S
C1138      C1139   1.423       .  A
C1139      C1429   1.500       .  S
C1139      C1140   1.415       .  A
C1140      C1589   1.487       .  S
C1141      C2917   1.515       .  S
C1141      C1142   1.421       .  A
C1141      C1146   1.409       .  A
C1142      C2997   1.461       .  S
C1142      C1143   1.414       .  A
C1143      C2741   1.516       .  S
C1143      C1144   1.417       .  A
C1144      C2581   1.480       .  S
C1144      C1145   1.413       .  A
C1145      C1365   1.496       .  S
C1145      C1146   1.426       .  A
C1146      C1957   1.479       .  S
C1147      C3557   1.496       .  S
C1147      C1148   1.428       .  A
C1147      C1152   1.410       .  A
C1148      C2869   1.490       .  S
C1148      C1149   1.423       .  A
C1149      C2290   1.514       .  S
C1149      C1150   1.419       .  A
C1150      C2117   1.479       .  S
C1150      C1151   1.410       .  A
C1151      C1541   1.497       .  S
C1151      C1152   1.415       .  A
C1152      C2021   1.487       .  S
C1153      C4018   1.480       .  S
C1153      C1154   1.431       .  A
C1153      C1158   1.440       .  A
C1154      C3826   1.524       .  S
C1154      C1155   1.419       .  A
C1155      C3381   1.497       .  S
C1155      C1156   1.422       .  A
C1156      C3426   1.528       .  S
C1156      C1157   1.434       .  A
C1157      C1570   1.474       .  S
C1157      C1158   1.442       .  A
C1158      C1717   1.562       .  S
C1159      C2898   1.480       .  S
C1159      C1160   1.429       .  A
C1159      C1164   1.423       .  A
C1160      C2882   1.496       .  S
C1160      C1161   1.411       .  A
C1161      C2309   1.496       .  S
C1161      C1162   1.415       .  A
C1162      C2437   1.502       .  S
C1162      C1163   1.417       .  A
C1163      C1669   1.474       .  S
C1163      C1164   1.423       .  A
C1164      C1938   1.534       .  S
C1165      C3634   1.504       .  S
C1165      C1166   1.415       .  A
C1165      C1170   1.410       .  A
C1166      C3845   1.491       .  S
C1166      C1167   1.418       .  A
C1167      C3397   1.478       .  S
C1167      C1168   1.425       .  A
C1168      C3541   1.536       .  S
C1168      C1169   1.418       .  A
C1169      C2002   1.458       .  S
C1169      C1170   1.427       .  A
C1170      C1909   1.498       .  S
C1171      C4325   1.506       .  S
C1171      C1172   1.412       .  A
C1171      C1176   1.409       .  A
C1172      C1826   1.495       .  S
C1172      C1173   1.443       .  A
C1173      C1989   1.483       .  S
C1173      C1174   1.435       .  A
C1174      C2949   1.545       .  S
C1174      C1175   1.419       .  A
C1175      C3125   1.473       .  S
C1175      C1176   1.414       .  A
C1176      C4210   1.495       .  S
C1177      C4133   1.517       .  S
C1177      C1178   1.416       .  A
C1177      C1182   1.394       .  A
C1178      C4293   1.448       .  S
C1178      C1179   1.415       .  A
C1179      C3525   1.508       .  S
C1179      C1180   1.410       .  A
C1180      C3413   1.481       .  S
C1180      C1181   1.406       .  A
C1181      C1557   1.490       .  S
C1181      C1182   1.418       .  A
C1182      C1317   1.459       .  S
C1183      C3669   1.533       .  S
C1183      C1184   1.430       .  A
C1183      C1188   1.435       .  A
C1184      C4066   1.505       .  S
C1184      C1185   1.434       .  A
C1185      C3237   1.495       .  S
C1185      C1186   1.424       .  A
C1186      C2853   1.505       .  S
C1186      C1187   1.407       .  A
C1187      C2277   1.504       .  S
C1187      C1188   1.430       .  A
C1188      C2325   1.491       .  S
C1189      C2146   1.505       .  S
C1189      C1190   1.431       .  A
C1189      C1194   1.426       .  A
C1190      C3877   1.496       .  S
C1190      C1191   1.421       .  A
C1191      C3794   1.489       .  S
C1191      C1192   1.398       .  A
C1192      C3349   1.494       .  S
C1192      C1193   1.417       .  A
C1193      C3157   1.482       .  S
C1193      C1194   1.416       .  A
C1194      C2453   1.502       .  S
C1195      C4197   1.486       .  S
C1195      C1196   1.421       .  A
C1195      C1200   1.404       .  A
C1196      C3938   1.501       .  S
C1196      C1197   1.420       .  A
C1197      C2533   1.479       .  S
C1197      C1198   1.422       .  A
C1198      C2645   1.513       .  S
C1198      C1199   1.407       .  A
C1199      C3026   1.472       .  S
C1199      C1200   1.416       .  A
C1200      C3106   1.494       .  S
C1201      C4354   1.498       .  S
C1201      C1202   1.430       .  A
C1201      C1206   1.419       .  A
C1202      C3765   1.509       .  S
C1202      C1203   1.430       .  A
C1203      C2229   1.506       .  S
C1203      C1204   1.424       .  A
C1204      C2805   1.498       .  S
C1204      C1205   1.410       .  A
C1205      C1461   1.491       .  S
C1205      C1206   1.422       .  A
C1206      C1861   1.505       .  S
C1207      C4162   1.495       .  S
C1207      C1208   1.424       .  A
C1207      C1212   1.419       .  A
C1208      C3890   1.507       .  S
C1208      C1209   1.423       .  A
C1209      C2162   1.486       .  S
C1209      C1210   1.417       .  A
C1210      C2789   1.496       .  S
C1210      C1211   1.403       .  A
C1211      C1445   1.488       .  S
C1211      C1212   1.421       .  A
C1212      C1349   1.489       .  S
C1213      C4309   1.505       .  S
C1213      C1214   1.415       .  A
C1213      C1218   1.431       .  A
C1214      C1810   1.477       .  S
C1214      C1215   1.410       .  A
C1215      C1397   1.510       .  S
C1215      C1216   1.401       .  A
C1216      C2613   1.473       .  S
C1216      C1217   1.427       .  A
C1217      C2373   1.513       .  S
C1217      C1218   1.425       .  A
C1218      C3714   1.496       .  S
C1219      C1701   1.503       .  S
C1219      C1220   1.422       .  A
C1219      C1224   1.423       .  A
C1220      C4005   1.495       .  S
C1220      C1221   1.431       .  A
C1221      C3973   1.516       .  S
C1221      C1222   1.426       .  A
C1222      C2565   1.501       .  S
C1222      C1223   1.429       .  A
C1223      C2421   1.495       .  S
C1223      C1224   1.416       .  A
C1224      C1653   1.501       .  S
C1225      C4277   1.502       .  S
C1225      C1226   1.414       .  A
C1225      C1230   1.425       .  A
C1226      C4341   1.505       .  S
C1226      C1227   1.406       .  A
C1227      C1842   1.494       .  S
C1227      C1228   1.433       .  A
C1228      C2053   1.502       .  S
C1228      C1229   1.446       .  A
C1229      C3589   1.547       .  S
C1229      C1230   1.443       .  A
C1230      C3509   1.490       .  S
C1231      C1781   1.481       .  S
C1231      C1232   1.409       .  A
C1231      C1236   1.410       .  A
C1232      C3317   1.519       .  S
C1232      C1233   1.426       .  A
C1233      C3189   1.474       .  S
C1233      C1234   1.436       .  A
C1234      C2485   1.557       .  S
C1234      C1235   1.437       .  A
C1235      C2389   1.475       .  S
C1235      C1236   1.421       .  A
C1236      C1621   1.513       .  S
C1237      C3573   1.495       .  S
C1237      C1238   1.426       .  A
C1237      C1242   1.428       .  A
C1238      C3013   1.516       .  S
C1238      C1239   1.420       .  A
C1239      C2757   1.500       .  S
C1239      C1240   1.431       .  A
C1240      C2821   1.515       .  S
C1240      C1241   1.439       .  A
C1241      C1474   1.514       .  S
C1241      C1242   1.437       .  A
C1242      C2037   1.522       .  S
C1243      C3989   1.490       .  S
C1243      C1244   1.414       .  A
C1243      C1248   1.403       .  A
C1244      C4101   1.489       .  S
C1244      C1245   1.406       .  A
C1245      C3269   1.479       .  S
C1245      C1246   1.421       .  A
C1246      C3285   1.516       .  S
C1246      C1247   1.428       .  A
C1247      C1749   1.491       .  S
C1247      C1248   1.426       .  A
C1248      C1682   1.488       .  S
C1249      C4178   1.492       .  S
C1249      C1250   1.423       .  A
C1249      C1254   1.409       .  A
C1250      C3685   1.491       .  S
C1250      C1251   1.415       .  A
C1251      C2338   1.498       .  S
C1251      C1252   1.418       .  A
C1252      C2725   1.489       .  S
C1252      C1253   1.411       .  A
C1253      C2978   1.488       .  S
C1253      C1254   1.420       .  A
C1254      C3090   1.493       .  S
C1255      C4245   1.503       .  S
C1255      C1256   1.420       .  A
C1255      C1260   1.415       .  A
C1256      C3861   1.488       .  S
C1256      C1257   1.411       .  A
C1257      C2133   1.492       .  S
C1257      C1258   1.423       .  A
C1258      C2661   1.499       .  S
C1258      C1259   1.419       .  A
C1259      C3042   1.503       .  S
C1259      C1260   1.428       .  A
C1260      C3477   1.485       .  S
C1261      C3365   1.487       .  S
C1261      C1262   1.422       .  A
C1261      C1266   1.431       .  A
C1262      C3813   1.504       .  S
C1262      C1263   1.414       .  A
C1263      C3730   1.480       .  S
C1263      C1264   1.401       .  A
C1264      C2197   1.491       .  S
C1264      C1265   1.421       .  A
C1265      C2261   1.488       .  S
C1265      C1266   1.423       .  A
C1266      C2837   1.520       .  S
C1267      C1330   1.505       .  S
C1267      C1268   1.424       .  A
C1267      C1272   1.437       .  A
C1268      C4149   1.516       .  S
C1268      C1269   1.420       .  A
C1269      C3957   1.481       .  S
C1269      C1270   1.409       .  A
C1270      C2549   1.497       .  S
C1270      C1271   1.418       .  A
C1271      C2629   1.497       .  S
C1271      C1272   1.424       .  A
C1272      C1410   1.494       .  S
C1273      C4085   1.509       .  S
C1273      C1274   1.427       .  A
C1273      C1278   1.413       .  A
C1274      C3650   1.489       .  S
C1274      C1275   1.422       .  A
C1275      C1925   1.520       .  S
C1275      C1276   1.431       .  A
C1276      C1973   1.487       .  S
C1276      C1277   1.428       .  A
C1277      C2933   1.530       .  S
C1277      C1278   1.427       .  A
C1278      C3250   1.482       .  S
C1279      C3461   1.514       .  S
C1279      C1280   1.425       .  A
C1279      C1284   1.433       .  A
C1280      C3205   1.478       .  S
C1280      C1281   1.406       .  A
C1281      C2501   1.498       .  S
C1281      C1282   1.413       .  A
C1282      C2098   1.497       .  S
C1282      C1283   1.425       .  A
C1283      C1525   1.493       .  S
C1283      C1284   1.434       .  A
C1284      C1605   1.521       .  S
C1285      C4258   1.498       .  S
C1285      C1286   1.418       .  A
C1285      C1290   1.430       .  A
C1286      C3490   1.499       .  S
C1286      C1287   1.426       .  A
C1287      C2962   1.514       .  S
C1287      C1288   1.422       .  A
C1288      C2709   1.506       .  S
C1288      C1289   1.438       .  A
C1289      C2210   1.514       .  S
C1289      C1290   1.438       .  A
C1290      C3746   1.520       .  S
C1291      C3218   1.516       .  S
C1291      C1292   1.425       .  A
C1291      C1296   1.425       .  A
C1292      C4053   1.489       .  S
C1292      C1293   1.428       .  A
C1293      C3925   1.511       .  S
C1293      C1294   1.418       .  A
C1294      C2517   1.505       .  S
C1294      C1295   1.428       .  A
C1295      C2469   1.493       .  S
C1295      C1296   1.417       .  A
C1296      C3173   1.494       .  S
C1297      C1298   1.405       .  A
C1297      C1302   1.401       .  A
C1297      H1304   1.081       .  S
C1298      C1299   1.416       .  A
C1299      C1300   1.422       .  A
C1299      C1306   1.503       .  S
C1300      C1301   1.413       .  A
C1300      H1305   1.084       .  S
C1301      C1302   1.407       .  A
C1302      C1303   1.502       .  S
C1303      H1307   1.109       .  S
C1303      H1308   1.104       .  S
C1303      H1309   1.108       .  S
C1306      H1310   1.110       .  S
C1306      H1311   1.110       .  S
C1306      H1312   1.111       .  S
C1313      C1314   1.409       .  A
C1313      C1318   1.387       .  A
C1313      H1320   1.085       .  S
C1314      C1315   1.412       .  A
C1315      C1316   1.385       .  A
C1315      C1322   1.517       .  S
C1316      C1317   1.401       .  A
C1316      H1321   1.082       .  S
C1317      C1318   1.404       .  A
C1318      C1319   1.507       .  S
C1319      H1323   1.111       .  S
C1319      H1324   1.106       .  S
C1319      H1325   1.110       .  S
C1322      H1326   1.104       .  S
C1322      H1327   1.093       .  S
C1322      H1328   1.111       .  S
C1329      C1330   1.393       .  A
C1329      C1334   1.392       .  A
C1329      H1336   1.075       .  S
C1330      C1331   1.420       .  A
C1331      C1332   1.415       .  A
C1331      C1338   1.502       .  S
C1332      C1333   1.406       .  A
C1332      H1337   1.083       .  S
C1333      C1334   1.422       .  A
C1334      C1335   1.500       .  S
C1335      H1339   1.109       .  S
C1335      H1340   1.092       .  S
C1335      H1341   1.109       .  S
C1338      H1342   1.108       .  S
C1338      H1343   1.110       .  S
C1338      H1344   1.110       .  S
C1345      C1346   1.406       .  A
C1345      C1350   1.390       .  A
C1345      H1352   1.073       .  S
C1346      C1347   1.411       .  A
C1347      C1348   1.412       .  A
C1347      C1354   1.504       .  S
C1348      C1349   1.409       .  A
C1348      H1353   1.082       .  S
C1349      C1350   1.412       .  A
C1350      C1351   1.510       .  S
C1351      H1355   1.111       .  S
C1351      H1356   1.104       .  S
C1351      H1357   1.108       .  S
C1354      H1358   1.110       .  S
C1354      H1359   1.103       .  S
C1354      H1360   1.111       .  S
C1361      C1362   1.403       .  A
C1361      C1366   1.408       .  A
C1361      H1368   1.084       .  S
C1362      C1363   1.419       .  A
C1363      C1364   1.393       .  A
C1363      C1370   1.509       .  S
C1364      C1365   1.399       .  A
C1364      H1369   1.083       .  S
C1365      C1366   1.417       .  A
C1366      C1367   1.503       .  S
C1367      H1371   1.109       .  S
C1367      H1372   1.106   1_455  S
C1367      H1373   1.109       .  S
C1370      H1374   1.107       .  S
C1370      H1375   1.106       .  S
C1370      H1376   1.105       .  S
C1377      C1378   1.416       .  A
C1377      C1382   1.401       .  A
C1377      H1384   1.084       .  S
C1378      C1379   1.408       .  A
C1379      C1380   1.394       .  A
C1379      C1386   1.495       .  S
C1380      C1381   1.400       .  A
C1380      H1385   1.084       .  S
C1381      C1382   1.403       .  A
C1382      C1383   1.504       .  S
C1383      H1387   1.107       .  S
C1383      H1388   1.110       .  S
C1383      H1389   1.109       .  S
C1386      H1390   1.105       .  S
C1386      H1391   1.089       .  S
C1386      H1392   1.109       .  S
C1393      C1394   1.400       .  A
C1393      C1398   1.411       .  A
C1393      H1400   1.083   1_455  S
C1394      C1395   1.420       .  A
C1395      C1396   1.401       .  A
C1395      C1402   1.513   1_455  S
C1396      C1397   1.404       .  A
C1396      H1401   1.080       .  S
C1397      C1398   1.420       .  A
C1398      C1399   1.506       .  S
C1399      H1403   1.105       .  S
C1399      H1404   1.110       .  S
C1399      H1405   1.110   1_455  S
C1402      H1406   1.103       .  S
C1402      H1407   1.111       .  S
C1402      H1408   1.101   1_655  S
C1409      C1410   1.396       .  A
C1409      C1414   1.397       .  A
C1409      H1416   1.086       .  S
C1410      C1411   1.412       .  A
C1411      C1412   1.411       .  A
C1411      C1418   1.500       .  S
C1412      C1413   1.408       .  A
C1412      H1417   1.079       .  S
C1413      C1414   1.414       .  A
C1414      C1415   1.489       .  S
C1415      H1419   1.105       .  S
C1415      H1420   1.107       .  S
C1415      H1421   1.109       .  S
C1418      H1422   1.107       .  S
C1418      H1423   1.106       .  S
C1418      H1424   1.110       .  S
C1425      C1426   1.405       .  A
C1425      C1430   1.404       .  A
C1425      H1432   1.085       .  S
C1426      C1427   1.401       .  A
C1427      C1428   1.408       .  A
C1427      C1434   1.506       .  S
C1428      C1429   1.408       .  A
C1428      H1433   1.081       .  S
C1429      C1430   1.419       .  A
C1430      C1431   1.508       .  S
C1431      H1435   1.109       .  S
C1431      H1436   1.109       .  S
C1431      H1437   1.109       .  S
C1434      H1438   1.110       .  S
C1434      H1439   1.105       .  S
C1434      H1440   1.104       .  S
C1441      C1442   1.404       .  A
C1441      C1446   1.405       .  A
C1441      H1448   1.079       .  S
C1442      C1443   1.407       .  A
C1443      C1444   1.390       .  A
C1443      C1450   1.489       .  S
C1444      C1445   1.395       .  A
C1444      H1449   1.078       .  S
C1445      C1446   1.412       .  A
C1446      C1447   1.505       .  S
C1447      H1451   1.110       .  S
C1447      H1452   1.109       .  S
C1447      H1453   1.108       .  S
C1450      H1454   1.105       .  S
C1450      H1455   1.108       .  S
C1450      H1456   1.111       .  S
C1457      C1458   1.397       .  A
C1457      C1462   1.401       .  A
C1457      H1464   1.076       .  S
C1458      C1459   1.421       .  A
C1459      C1460   1.401       .  A
C1459      C1466   1.489   1_455  S
C1460      C1461   1.393       .  A
C1460      H1465   1.085       .  S
C1461      C1462   1.416       .  A
C1462      C1463   1.500       .  S
C1463      H1467   1.102       .  S
C1463      H1468   1.108       .  S
C1463      H1469   1.110       .  S
C1466      H1470   1.107       .  S
C1466      H1471   1.110       .  S
C1466      H1472   1.110       .  S
C1473      C1474   1.414       .  A
C1473      C1478   1.418       .  A
C1473      H1480   1.084       .  S
C1474      C1475   1.409       .  A
C1475      C1476   1.407       .  A
C1475      C1482   1.500       .  S
C1476      C1477   1.416       .  A
C1476      H1481   1.083   1_455  S
C1477      C1478   1.420       .  A
C1478      C1479   1.500       .  S
C1479      H1483   1.111       .  S
C1479      H1484   1.102       .  S
C1479      H1485   1.098       .  S
C1482      H1486   1.109   1_455  S
C1482      H1487   1.108       .  S
C1482      H1488   1.104       .  S
C1489      C1490   1.410       .  A
C1489      C1494   1.416       .  A
C1489      H1496   1.083       .  S
C1490      C1491   1.419       .  A
C1491      C1492   1.397       .  A
C1491      C1498   1.502       .  S
C1492      C1493   1.397       .  A
C1492      H1497   1.083       .  S
C1493      C1494   1.411       .  A
C1494      C1495   1.503       .  S
C1495      H1499   1.109       .  S
C1495      H1500   1.106       .  S
C1495      H1501   1.110       .  S
C1498      H1502   1.108       .  S
C1498      H1503   1.108       .  S
C1498      H1504   1.108       .  S
C1505      C1506   1.402       .  A
C1505      C1510   1.404       .  A
C1505      H1512   1.083   1_455  S
C1506      C1507   1.413       .  A
C1507      C1508   1.397       .  A
C1507      C1514   1.517       .  S
C1508      C1509   1.401       .  A
C1508      H1513   1.081       .  S
C1509      C1510   1.421       .  A
C1510      C1511   1.507       .  S
C1511      H1515   1.108   1_455  S
C1511      H1516   1.110       .  S
C1511      H1517   1.107       .  S
C1514      H1518   1.106       .  S
C1514      H1519   1.097       .  S
C1514      H1520   1.103       .  S
C1521      C1522   1.405       .  A
C1521      C1526   1.407       .  A
C1521      H1528   1.081       .  S
C1522      C1523   1.429       .  A
C1523      C1524   1.391       .  A
C1523      C1530   1.509       .  S
C1524      C1525   1.384       .  A
C1524      H1529   1.066       .  S
C1525      C1526   1.415       .  A
C1526      C1527   1.501       .  S
C1527      H1531   1.109       .  S
C1527      H1532   1.107       .  S
C1527      H1533   1.107       .  S
C1530      H1534   1.109       .  S
C1530      H1535   1.109       .  S
C1530      H1536   1.111       .  S
C1537      C1538   1.410       .  A
C1537      C1542   1.416       .  A
C1537      H1544   1.083       .  S
C1538      C1539   1.437       .  A
C1539      C1540   1.388       .  A
C1539      C1546   1.510       .  S
C1540      C1541   1.384       .  A
C1540      H1545   1.076       .  S
C1541      C1542   1.412       .  A
C1542      C1543   1.506       .  S
C1543      H1547   1.109   1_455  S
C1543      H1548   1.102       .  S
C1543      H1549   1.110       .  S
C1546      H1550   1.091       .  S
C1546      H1551   1.110       .  S
C1546      H1552   1.112       .  S
C1553      C1554   1.403       .  A
C1553      C1558   1.394       .  A
C1553      H1560   1.075       .  S
C1554      C1555   1.407       .  A
C1555      C1556   1.408       .  A
C1555      C1562   1.505       .  S
C1556      C1557   1.410       .  A
C1556      H1561   1.084       .  S
C1557      C1558   1.408       .  A
C1558      C1559   1.507       .  S
C1559      H1563   1.105       .  S
C1559      H1564   1.107       .  S
C1559      H1565   1.106       .  S
C1562      H1566   1.108       .  S
C1562      H1567   1.099   1_554  S
C1562      H1568   1.111   1_554  S
C1569      C1570   1.408       .  A
C1569      C1574   1.407       .  A
C1569      H1576   1.083       .  S
C1570      C1571   1.406       .  A
C1571      C1572   1.390       .  A
C1571      C1578   1.516       .  S
C1572      C1573   1.417       .  A
C1572      H1577   1.074       .  S
C1573      C1574   1.417       .  A
C1574      C1575   1.507       .  S
C1575      H1579   1.110       .  S
C1575      H1580   1.104       .  S
C1575      H1581   1.105       .  S
C1578      H1582   1.108       .  S
C1578      H1583   1.107       .  S
C1578      H1584   1.105       .  S
C1585      C1586   1.386       .  A
C1585      C1590   1.383       .  A
C1585      H1592   1.073       .  S
C1586      C1587   1.407       .  A
C1587      C1588   1.409       .  A
C1587      C1594   1.500   1_554  S
C1588      C1589   1.408       .  A
C1588      H1593   1.083       .  S
C1589      C1590   1.414       .  A
C1590      C1591   1.501       .  S
C1591      H1595   1.109       .  S
C1591      H1596   1.104       .  S
C1591      H1597   1.101       .  S
C1594      H1598   1.105       .  S
C1594      H1599   1.110       .  S
C1594      H1600   1.111       .  S
C1601      C1602   1.408       .  A
C1601      C1606   1.425       .  A
C1601      H1608   1.083       .  S
C1602      C1603   1.442       .  A
C1603      C1604   1.389       .  A
C1603      C1610   1.522       .  S
C1604      C1605   1.384       .  A
C1604      H1609   1.058       .  S
C1605      C1606   1.426       .  A
C1606      C1607   1.505       .  S
C1607      H1611   1.109       .  S
C1607      H1612   1.110       .  S
C1607      H1613   1.105       .  S
C1610      H1614   1.109       .  S
C1610      H1615   1.107       .  S
C1610      H1616   1.111       .  S
C1617      C1618   1.405       .  A
C1617      C1622   1.414       .  A
C1617      H1624   1.084       .  S
C1618      C1619   1.446       .  A
C1619      C1620   1.396       .  A
C1619      C1626   1.522       .  S
C1620      C1621   1.390       .  A
C1620      H1625   1.080       .  S
C1621      C1622   1.422       .  A
C1622      C1623   1.505       .  S
C1623      H1627   1.110       .  S
C1623      H1628   1.108       .  S
C1623      H1629   1.110       .  S
C1626      H1630   1.096       .  S
C1626      H1631   1.111       .  S
C1626      H1632   1.111       .  S
C1633      C1634   1.408       .  A
C1633      C1638   1.407       .  A
C1633      H1640   1.084       .  S
C1634      C1635   1.412       .  A
C1635      C1636   1.409       .  A
C1635      C1642   1.505       .  S
C1636      C1637   1.407       .  A
C1636      H1641   1.080   1_455  S
C1637      C1638   1.413       .  A
C1638      C1639   1.502       .  S
C1639      H1643   1.110       .  S
C1639      H1644   1.102       .  S
C1639      H1645   1.107       .  S
C1642      H1646   1.109       .  S
C1642      H1647   1.106       .  S
C1642      H1648   1.109   1_455  S
C1649      C1650   1.407       .  A
C1649      C1654   1.407       .  A
C1649      H1656   1.084       .  S
C1650      C1651   1.418       .  A
C1651      C1652   1.406       .  A
C1651      C1658   1.512       .  S
C1652      C1653   1.403       .  A
C1652      H1657   1.082       .  S
C1653      C1654   1.417       .  A
C1654      C1655   1.505       .  S
C1655      H1659   1.109       .  S
C1655      H1660   1.111       .  S
C1655      H1661   1.106       .  S
C1658      H1662   1.107       .  S
C1658      H1663   1.093       .  S
C1658      H1664   1.109       .  S
C1665      C1666   1.394       .  A
C1665      C1670   1.393       .  A
C1665      H1672   1.080       .  S
C1666      C1667   1.428       .  A
C1667      C1668   1.390       .  A
C1667      C1674   1.509   1_455  S
C1668      C1669   1.389       .  A
C1668      H1673   1.084       .  S
C1669      C1670   1.421       .  A
C1670      C1671   1.510       .  S
C1671      H1675   1.110       .  S
C1671      H1676   1.104       .  S
C1671      H1677   1.094       .  S
C1674      H1678   1.106       .  S
C1674      H1679   1.110       .  S
C1674      H1680   1.111       .  S
C1681      C1682   1.399       .  A
C1681      C1686   1.404       .  A
C1681      H1688   1.084       .  S
C1682      C1683   1.400       .  A
C1683      C1684   1.396       .  A
C1683      C1690   1.497       .  S
C1684      C1685   1.401       .  A
C1684      H1689   1.079       .  S
C1685      C1686   1.427       .  A
C1686      C1687   1.506       .  S
C1687      H1691   1.110       .  S
C1687      H1692   1.107       .  S
C1687      H1693   1.105       .  S
C1690      H1694   1.108       .  S
C1690      H1695   1.101       .  S
C1690      H1696   1.103       .  S
C1697      C1698   1.400       .  A
C1697      C1702   1.399       .  A
C1697      H1704   1.078       .  S
C1698      C1699   1.410       .  A
C1699      C1700   1.413       .  A
C1699      C1706   1.504       .  S
C1700      C1701   1.410       .  A
C1700      H1705   1.083       .  S
C1701      C1702   1.419       .  A
C1702      C1703   1.507       .  S
C1703      H1707   1.109       .  S
C1703      H1708   1.106       .  S
C1703      H1709   1.107       .  S
C1706      H1710   1.109       .  S
C1706      H1711   1.101       .  S
C1706      H1712   1.111       .  S
C1713      C1714   1.405       .  A
C1713      C1718   1.426       .  A
C1713      H1720   1.083       .  S
C1714      C1715   1.437       .  A
C1715      C1716   1.398       .  A
C1715      C1722   1.520       .  S
C1716      C1717   1.395       .  A
C1716      H1721   1.065       .  S
C1717      C1718   1.421       .  A
C1718      C1719   1.497       .  S
C1719      H1723   1.110       .  S
C1719      H1724   1.110       .  S
C1719      H1725   1.109       .  S
C1722      H1726   1.111       .  S
C1722      H1727   1.093       .  S
C1722      H1728   1.109       .  S
C1729      C1730   1.407       .  A
C1729      C1734   1.401       .  A
C1729      H1736   1.081       .  S
C1730      C1731   1.419       .  A
C1731      C1732   1.401       .  A
C1731      C1738   1.500       .  S
C1732      C1733   1.399       .  A
C1732      H1737   1.083       .  S
C1733      C1734   1.410       .  A
C1734      C1735   1.504       .  S
C1735      H1739   1.109       .  S
C1735      H1740   1.111       .  S
C1735      H1741   1.108       .  S
C1738      H1742   1.106       .  S
C1738      H1743   1.100       .  S
C1738      H1744   1.110       .  S
C1745      C1746   1.394       .  A
C1745      C1750   1.390       .  A
C1745      H1752   1.085       .  S
C1746      C1747   1.406       .  A
C1747      C1748   1.407       .  A
C1747      C1754   1.502       .  S
C1748      C1749   1.407       .  A
C1748      H1753   1.084       .  S
C1749      C1750   1.427       .  A
C1750      C1751   1.508       .  S
C1751      H1755   1.108       .  S
C1751      H1756   1.107       .  S
C1751      H1757   1.110       .  S
C1754      H1758   1.092       .  S
C1754      H1759   1.108       .  S
C1754      H1760   1.109       .  S
C1761      C1762   1.404       .  A
C1761      C1766   1.402       .  A
C1761      H1768   1.079       .  S
C1762      C1763   1.410       .  A
C1763      C1764   1.413       .  A
C1763      C1770   1.510   1_554  S
C1764      C1765   1.414       .  A
C1764      H1769   1.082       .  S
C1765      C1766   1.419       .  A
C1766      C1767   1.508       .  S
C1767      H1771   1.110       .  S
C1767      H1772   1.104       .  S
C1767      H1773   1.110       .  S
C1770      H1774   1.109   1_556  S
C1770      H1775   1.104       .  S
C1770      H1776   1.111       .  S
C1777      C1778   1.398       .  A
C1777      C1782   1.402       .  A
C1777      H1784   1.085       .  S
C1778      C1779   1.425       .  A
C1779      C1780   1.388       .  A
C1779      C1786   1.493       .  S
C1780      C1781   1.383       .  A
C1780      H1785   1.085       .  S
C1781      C1782   1.426       .  A
C1782      C1783   1.509       .  S
C1783      H1787   1.107       .  S
C1783      H1788   1.110       .  S
C1783      H1789   1.109       .  S
C1786      H1790   1.108       .  S
C1786      H1791   1.096       .  S
C1786      H1792   1.111       .  S
C1793      C1794   1.404       .  A
C1793      C1798   1.400       .  A
C1793      H1800   1.083       .  S
C1794      C1795   1.406       .  A
C1795      C1796   1.402       .  A
C1795      C1802   1.483   1_554  S
C1796      C1797   1.397       .  A
C1796      H1801   1.084       .  S
C1797      C1798   1.423       .  A
C1798      C1799   1.507       .  S
C1799      H1803   1.110       .  S
C1799      H1804   1.109       .  S
C1799      H1805   1.107       .  S
C1802      H1806   1.100       .  S
C1802      H1807   1.107       .  S
C1802      H1808   1.111       .  S
C1809      C1810   1.386       .  A
C1809      C1814   1.393       .  A
C1809      H1816   1.084       .  S
C1810      C1811   1.421       .  A
C1811      C1812   1.403       .  A
C1811      C1818   1.505       .  S
C1812      C1813   1.399       .  A
C1812      H1817   1.084       .  S
C1813      C1814   1.414       .  A
C1814      C1815   1.490       .  S
C1815      H1819   1.108       .  S
C1815      H1820   1.109       .  S
C1815      H1821   1.110       .  S
C1818      H1822   1.103       .  S
C1818      H1823   1.107       .  S
C1818      H1824   1.110       .  S
C1825      C1826   1.406       .  A
C1825      C1830   1.405       .  A
C1825      H1832   1.083       .  S
C1826      C1827   1.411       .  A
C1827      C1828   1.398       .  A
C1827      C1834   1.504       .  S
C1828      C1829   1.399       .  A
C1828      H1833   1.080       .  S
C1829      C1830   1.413       .  A
C1830      C1831   1.504       .  S
C1831      H1835   1.111       .  S
C1831      H1836   1.108       .  S
C1831      H1837   1.107       .  S
C1834      H1838   1.105       .  S
C1834      H1839   1.110       .  S
C1834      H1840   1.110       .  S
C1841      C1842   1.396       .  A
C1841      C1846   1.401       .  A
C1841      H1848   1.085       .  S
C1842      C1843   1.420       .  A
C1843      C1844   1.402       .  A
C1843      C1850   1.502       .  S
C1844      C1845   1.400       .  A
C1844      H1849   1.085       .  S
C1845      C1846   1.417       .  A
C1846      C1847   1.493       .  S
C1847      H1851   1.110       .  S
C1847      H1852   1.107       .  S
C1847      H1853   1.109       .  S
C1850      H1854   1.108       .  S
C1850      H1855   1.103       .  S
C1850      H1856   1.109       .  S
C1857      C1858   1.402       .  A
C1857      C1862   1.399       .  A
C1857      H1864   1.071       .  S
C1858      C1859   1.410       .  A
C1859      C1860   1.412       .  A
C1859      C1866   1.506       .  S
C1860      C1861   1.414       .  A
C1860      H1865   1.084       .  S
C1861      C1862   1.409       .  A
C1862      C1863   1.500       .  S
C1863      H1867   1.107       .  S
C1863      H1868   1.109       .  S
C1863      H1869   1.107       .  S
C1866      H1870   1.096       .  S
C1866      H1871   1.106       .  S
C1866      H1872   1.110       .  S
C1873      C1874   1.418       .  A
C1873      C1878   1.429       .  A
C1873      H1880   1.079       .  S
C1874      C1875   1.409       .  A
C1875      C1876   1.383       .  A
C1875      C1882   1.459       .  S
C1876      C1877   1.379       .  A
C1876      H1881   1.082       .  S
C1877      C1878   1.415       .  A
C1878      C1879   1.497       .  S
C1879      H1883   1.110       .  S
C1879      H1884   1.110       .  S
C1879      H1885   1.103       .  S
C1882      H1886   1.093       .  S
C1882      H1887   1.095       .  S
C1882      H1888   1.101       .  S
C1889      C1890   1.408       .  A
C1889      C1894   1.418       .  A
C1889      H1896   1.083       .  S
C1890      C1891   1.426       .  A
C1891      C1892   1.395       .  A
C1891      C1898   1.511       .  S
C1892      C1893   1.399       .  A
C1892      H1897   1.069       .  S
C1893      C1894   1.422       .  A
C1894      C1895   1.502       .  S
C1895      H1899   1.110       .  S
C1895      H1900   1.107       .  S
C1895      H1901   1.110       .  S
C1898      H1902   1.094       .  S
C1898      H1903   1.110       .  S
C1898      H1904   1.112       .  S
C1905      C1906   1.403       .  A
C1905      C1910   1.408       .  A
C1905      H1912   1.084       .  S
C1906      C1907   1.427       .  A
C1907      C1908   1.395       .  A
C1907      C1914   1.499       .  S
C1908      C1909   1.390       .  A
C1908      H1913   1.085       .  S
C1909      C1910   1.427       .  A
C1910      C1911   1.513       .  S
C1911      H1915   1.081       .  S
C1911      H1916   1.103       .  S
C1911      H1917   1.107       .  S
C1914      H1918   1.109       .  S
C1914      H1919   1.110       .  S
C1914      H1920   1.111       .  S
C1921      C1922   1.406       .  A
C1921      C1926   1.418       .  A
C1921      H1928   1.079       .  S
C1922      C1923   1.422       .  A
C1923      C1924   1.412       .  A
C1923      C1930   1.510       .  S
C1924      C1925   1.408       .  A
C1924      H1929   1.084       .  S
C1925      C1926   1.416       .  A
C1926      C1927   1.504       .  S
C1927      H1931   1.110       .  S
C1927      H1932   1.109       .  S
C1927      H1933   1.102       .  S
C1930      H1934   1.105       .  S
C1930      H1935   1.095       .  S
C1930      H1936   1.111       .  S
C1937      C1938   1.392       .  A
C1937      C1942   1.392       .  A
C1937      H1944   1.061       .  S
C1938      C1939   1.425       .  A
C1939      C1940   1.424       .  A
C1939      C1946   1.503       .  S
C1940      C1941   1.408       .  A
C1940      H1945   1.083       .  S
C1941      C1942   1.436       .  A
C1942      C1943   1.517       .  S
C1943      H1947   1.111       .  S
C1943      H1948   1.110       .  S
C1943      H1949   1.102       .  S
C1946      H1950   1.110       .  S
C1946      H1951   1.110       .  S
C1946      H1952   1.105       .  S
C1953      C1954   1.408       .  A
C1953      C1958   1.401       .  A
C1953      H1960   1.085   1_554  S
C1954      C1955   1.409       .  A
C1955      C1956   1.391       .  A
C1955      C1962   1.510       .  S
C1956      C1957   1.401       .  A
C1956      H1961   1.084       .  S
C1957      C1958   1.410       .  A
C1958      C1959   1.506       .  S
C1959      H1963   1.110   1_554  S
C1959      H1964   1.107       .  S
C1959      H1965   1.110   1_554  S
C1962      H1966   1.097       .  S
C1962      H1967   1.096       .  S
C1962      H1968   1.103       .  S
C1969      C1970   1.401       .  A
C1969      C1974   1.398       .  A
C1969      H1976   1.084       .  S
C1970      C1971   1.423       .  A
C1971      C1972   1.398       .  A
C1971      C1978   1.495       .  S
C1972      C1973   1.390       .  A
C1972      H1977   1.085       .  S
C1973      C1974   1.422       .  A
C1974      C1975   1.507       .  S
C1975      H1979   1.108       .  S
C1975      H1980   1.109       .  S
C1975      H1981   1.105       .  S
C1978      H1982   1.107       .  S
C1978      H1983   1.107       .  S
C1978      H1984   1.107       .  S
C1985      C1986   1.413       .  A
C1985      C1990   1.421       .  A
C1985      H1992   1.082       .  S
C1986      C1987   1.424       .  A
C1987      C1988   1.383       .  A
C1987      C1994   1.488       .  S
C1988      C1989   1.387       .  A
C1988      H1993   1.084       .  S
C1989      C1990   1.405       .  A
C1990      C1991   1.502       .  S
C1991      H1995   1.110   1_554  S
C1991      H1996   1.109   1_554  S
C1991      H1997   1.103       .  S
C1994      H1998   1.107       .  S
C1994      H1999   1.104       .  S
C1994      H2000   1.112       .  S
C2001      C2002   1.403       .  A
C2001      C2006   1.399       .  A
C2001      H2008   1.084       .  S
C2002      C2003   1.410       .  A
C2003      C2004   1.364       .  A
C2003      C2010   1.497       .  S
C2004      C2005   1.386       .  A
C2004      H2009   1.082       .  S
C2005      C2006   1.409       .  A
C2006      C2007   1.497       .  S
C2007      H2011   1.111       .  S
C2007      H2012   1.110       .  S
C2007      H2013   1.106       .  S
C2010      H2014   1.105       .  S
C2010      H2015   1.110       .  S
C2010      H2016   1.095       .  S
C2017      C2018   1.404       .  A
C2017      C2022   1.405       .  A
C2017      H2024   1.082       .  S
C2018      C2019   1.416       .  A
C2019      C2020   1.404       .  A
C2019      C2026   1.505       .  S
C2020      C2021   1.399       .  A
C2020      H2025   1.084       .  S
C2021      C2022   1.417       .  A
C2022      C2023   1.514       .  S
C2023      H2027   1.098       .  S
C2023      H2028   1.109       .  S
C2023      H2029   1.104       .  S
C2026      H2030   1.109       .  S
C2026      H2031   1.108       .  S
C2026      H2032   1.106       .  S
C2033      C2034   1.404       .  A
C2033      C2038   1.420       .  A
C2033      H2040   1.084       .  S
C2034      C2035   1.423       .  A
C2035      C2036   1.397       .  A
C2035      C2042   1.509       .  S
C2036      C2037   1.397       .  A
C2036      H2041   1.069       .  S
C2037      C2038   1.426       .  A
C2038      C2039   1.503       .  S
C2039      H2043   1.110       .  S
C2039      H2044   1.109       .  S
C2039      H2045   1.107       .  S
C2042      H2046   1.100   1_554  S
C2042      H2047   1.099       .  S
C2042      H2048   1.111   1_554  S
C2049      C2050   1.403       .  A
C2049      C2054   1.394       .  A
C2049      H2056   1.082       .  S
C2050      C2051   1.409       .  A
C2051      C2052   1.420       .  A
C2051      C2058   1.505       .  S
C2052      C2053   1.418       .  A
C2052      H2057   1.083       .  S
C2053      C2054   1.412       .  A
C2054      C2055   1.500       .  S
C2055      H2059   1.099       .  S
C2055      H2060   1.100       .  S
C2055      H2061   1.104       .  S
C2058      H2062   1.105   1_554  S
C2058      H2063   1.107       .  S
C2058      H2064   1.110       .  S
C2065      C2066   1.410       .  A
C2065      C2070   1.417       .  A
C2065      H2072   1.082       .  S
C2066      C2067   1.421       .  A
C2067      C2068   1.394       .  A
C2067      C2074   1.491       .  S
C2068      C2069   1.389       .  A
C2068      H2073   1.080       .  S
C2069      C2070   1.413       .  A
C2070      C2071   1.500       .  S
C2071      H2075   1.110       .  S
C2071      H2076   1.109       .  S
C2071      H2077   1.100       .  S
C2074      H2078   1.108       .  S
C2074      H2079   1.105       .  S
C2074      H2080   1.111       .  S
C2081      C2082   1.407       .  A
C2081      C2086   1.408       .  A
C2081      H2088   1.083   1_455  S
C2082      C2083   1.413       .  A
C2083      C2084   1.408       .  A
C2083      C2090   1.492       .  S
C2084      C2085   1.406       .  A
C2084      H2089   1.085       .  S
C2085      C2086   1.411       .  A
C2086      C2087   1.494       .  S
C2087      H2091   1.104       .  S
C2087      H2092   1.105   1_455  S
C2087      H2093   1.109   1_455  S
C2090      H2094   1.100       .  S
C2090      H2095   1.108       .  S
C2090      H2096   1.111       .  S
C2097      C2098   1.412       .  A
C2097      C2102   1.414       .  A
C2097      H2104   1.084       .  S
C2098      C2099   1.414       .  A
C2099      C2100   1.398       .  A
C2099      C2106   1.509       .  S
C2100      C2101   1.401       .  A
C2100      H2105   1.074       .  S
C2101      C2102   1.410       .  A
C2102      C2103   1.498       .  S
C2103      H2107   1.110       .  S
C2103      H2108   1.099       .  S
C2103      H2109   1.092       .  S
C2106      H2110   1.104       .  S
C2106      H2111   1.109       .  S
C2106      H2112   1.109       .  S
C2113      C2114   1.392       .  A
C2113      C2118   1.393       .  A
C2113      H2120   1.081       .  S
C2114      C2115   1.414       .  A
C2115      C2116   1.395       .  A
C2115      C2122   1.486   1_455  S
C2116      C2117   1.390       .  A
C2116      H2121   1.085       .  S
C2117      C2118   1.418       .  A
C2118      C2119   1.503       .  S
C2119      H2123   1.105       .  S
C2119      H2124   1.104       .  S
C2119      H2125   1.110       .  S
C2122      H2126   1.108       .  S
C2122      H2127   1.109       .  S
C2122      H2128   1.109       .  S
C2129      C2130   1.399       .  A
C2129      C2134   1.402       .  A
C2129      H2136   1.083       .  S
C2130      C2131   1.407       .  A
C2131      C2132   1.404       .  A
C2131      C2138   1.510       .  S
C2132      C2133   1.407       .  A
C2132      H2137   1.083       .  S
C2133      C2134   1.414       .  A
C2134      C2135   1.502       .  S
C2135      H2139   1.110       .  S
C2135      H2140   1.102       .  S
C2135      H2141   1.108       .  S
C2138      H2142   1.094       .  S
C2138      H2143   1.102       .  S
C2138      H2144   1.110       .  S
C2145      C2146   1.412       .  A
C2145      C2150   1.400       .  A
C2145      H2152   1.081       .  S
C2146      C2147   1.405       .  A
C2147      C2148   1.408       .  A
C2147      C2154   1.505       .  S
C2148      C2149   1.418       .  A
C2148      H2153   1.083       .  S
C2149      C2150   1.408       .  A
C2150      C2151   1.509       .  S
C2151      H2155   1.108       .  S
C2151      H2156   1.106       .  S
C2151      H2157   1.094       .  S
C2154      H2158   1.108       .  S
C2154      H2159   1.107       .  S
C2154      H2160   1.111       .  S
C2161      C2162   1.401       .  A
C2161      C2166   1.402       .  A
C2161      H2168   1.085       .  S
C2162      C2163   1.427       .  A
C2163      C2164   1.390       .  A
C2163      C2170   1.516       .  S
C2164      C2165   1.392       .  A
C2164      H2169   1.066       .  S
C2165      C2166   1.411       .  A
C2166      C2167   1.495       .  S
C2167      H2171   1.103       .  S
C2167      H2172   1.105       .  S
C2167      H2173   1.107       .  S
C2170      H2174   1.111       .  S
C2170      H2175   1.110       .  S
C2170      H2176   1.107       .  S
C2177      C2178   1.403       .  A
C2177      C2182   1.395       .  A
C2177      H2184   1.074       .  S
C2178      C2179   1.403       .  A
C2179      C2180   1.416       .  A
C2179      C2186   1.499       .  S
C2180      C2181   1.414       .  A
C2180      H2185   1.082       .  S
C2181      C2182   1.419       .  A
C2182      C2183   1.506       .  S
C2183      H2187   1.110       .  S
C2183      H2188   1.106       .  S
C2183      H2189   1.109       .  S
C2186      H2190   1.106       .  S
C2186      H2191   1.100       .  S
C2186      H2192   1.110       .  S
C2193      C2194   1.402       .  A
C2193      C2198   1.399       .  A
C2193      H2200   1.075       .  S
C2194      C2195   1.405       .  A
C2195      C2196   1.401       .  A
C2195      C2202   1.516       .  S
C2196      C2197   1.409       .  A
C2196      H2201   1.076       .  S
C2197      C2198   1.405       .  A
C2198      C2199   1.506       .  S
C2199      H2203   1.110       .  S
C2199      H2204   1.109       .  S
C2199      H2205   1.108       .  S
C2202      H2206   1.105       .  S
C2202      H2207   1.106       .  S
C2202      H2208   1.110       .  S
C2209      C2210   1.409       .  A
C2209      C2214   1.416       .  A
C2209      H2216   1.083       .  S
C2210      C2211   1.416       .  A
C2211      C2212   1.410       .  A
C2211      C2218   1.494       .  S
C2212      C2213   1.400       .  A
C2212      H2217   1.075       .  S
C2213      C2214   1.419       .  A
C2214      C2215   1.506       .  S
C2215      H2219   1.111       .  S
C2215      H2220   1.098       .  S
C2215      H2221   1.108       .  S
C2218      H2222   1.107       .  S
C2218      H2223   1.101       .  S
C2218      H2224   1.104       .  S
C2225      C2226   1.404       .  A
C2225      C2230   1.401       .  A
C2225      H2232   1.082       .  S
C2226      C2227   1.415       .  A
C2227      C2228   1.418       .  A
C2227      C2234   1.503       .  S
C2228      C2229   1.409       .  A
C2228      H2233   1.084       .  S
C2229      C2230   1.420       .  A
C2230      C2231   1.513       .  S
C2231      H2235   1.109       .  S
C2231      H2236   1.104       .  S
C2231      H2237   1.108       .  S
C2234      H2238   1.108       .  S
C2234      H2239   1.095       .  S
C2234      H2240   1.110       .  S
C2241      C2242   1.394       .  A
C2241      C2246   1.382       .  A
C2241      H2248   1.072       .  S
C2242      C2243   1.417       .  A
C2243      C2244   1.408       .  A
C2243      C2250   1.501       .  S
C2244      C2245   1.403       .  A
C2244      H2249   1.082       .  S
C2245      C2246   1.410       .  A
C2246      C2247   1.503       .  S
C2247      H2251   1.112       .  S
C2247      H2252   1.084       .  S
C2247      H2253   1.110       .  S
C2250      H2254   1.107       .  S
C2250      H2255   1.109       .  S
C2250      H2256   1.110       .  S
C2257      C2258   1.389       .  A
C2257      C2262   1.385       .  A
C2257      H2264   1.076       .  S
C2258      C2259   1.413       .  A
C2259      C2260   1.407       .  A
C2259      C2266   1.507       .  S
C2260      C2261   1.406       .  A
C2260      H2265   1.083       .  S
C2261      C2262   1.419       .  A
C2262      C2263   1.506       .  S
C2263      H2267   1.104       .  S
C2263      H2268   1.097       .  S
C2263      H2269   1.108       .  S
C2266      H2270   1.104       .  S
C2266      H2271   1.109       .  S
C2266      H2272   1.110       .  S
C2273      C2274   1.410       .  A
C2273      C2278   1.414       .  A
C2273      H2280   1.078       .  S
C2274      C2275   1.407       .  A
C2275      C2276   1.396       .  A
C2275      C2282   1.500       .  S
C2276      C2277   1.400       .  A
C2276      H2281   1.081       .  S
C2277      C2278   1.409       .  A
C2278      C2279   1.502       .  S
C2279      H2283   1.107       .  S
C2279      H2284   1.109       .  S
C2279      H2285   1.109       .  S
C2282      H2286   1.108       .  S
C2282      H2287   1.104       .  S
C2282      H2288   1.095       .  S
C2289      C2290   1.424       .  A
C2289      C2294   1.423       .  A
C2289      H2296   1.084       .  S
C2290      C2291   1.412       .  A
C2291      C2292   1.391       .  A
C2291      C2298   1.498       .  S
C2292      C2293   1.402       .  A
C2292      H2297   1.075       .  S
C2293      C2294   1.406       .  A
C2294      C2295   1.505       .  S
C2295      H2299   1.110       .  S
C2295      H2300   1.103       .  S
C2295      H2301   1.100       .  S
C2298      H2302   1.100       .  S
C2298      H2303   1.107       .  S
C2298      H2304   1.102       .  S
C2305      C2306   1.401       .  A
C2305      C2310   1.410       .  A
C2305      H2312   1.079       .  S
C2306      C2307   1.427       .  A
C2307      C2308   1.404       .  A
C2307      C2314   1.496       .  S
C2308      C2309   1.393       .  A
C2308      H2313   1.085       .  S
C2309      C2310   1.417       .  A
C2310      C2311   1.506       .  S
C2311      H2315   1.110       .  S
C2311      H2316   1.106       .  S
C2311      H2317   1.105       .  S
C2314      H2318   1.107       .  S
C2314      H2319   1.108       .  S
C2314      H2320   1.111       .  S
C2321      C2322   1.399       .  A
C2321      C2326   1.381       .  A
C2321      H2328   1.076       .  S
C2322      C2323   1.404       .  A
C2323      C2324   1.414       .  A
C2323      C2330   1.507       .  S
C2324      C2325   1.416       .  A
C2324      H2329   1.083       .  S
C2325      C2326   1.421       .  A
C2326      C2327   1.516       .  S
C2327      H2331   1.105       .  S
C2327      H2332   1.107       .  S
C2327      H2333   1.096       .  S
C2330      H2334   1.104       .  S
C2330      H2335   1.106       .  S
C2330      H2336   1.111       .  S
C2337      C2338   1.393       .  A
C2337      C2342   1.400       .  A
C2337      H2344   1.085       .  S
C2338      C2339   1.425       .  A
C2339      C2340   1.402       .  A
C2339      C2346   1.508       .  S
C2340      C2341   1.403       .  A
C2340      H2345   1.085       .  S
C2341      C2342   1.426       .  A
C2342      C2343   1.498       .  S
C2343      H2347   1.111       .  S
C2343      H2348   1.105       .  S
C2343      H2349   1.107       .  S
C2346      H2350   1.107       .  S
C2346      H2351   1.106       .  S
C2346      H2352   1.111       .  S
C2353      C2354   1.398       .  A
C2353      C2358   1.407       .  A
C2353      H2360   1.078       .  S
C2354      C2355   1.420       .  A
C2355      C2356   1.410       .  A
C2355      C2362   1.494       .  S
C2356      C2357   1.402       .  A
C2356      H2361   1.085       .  S
C2357      C2358   1.418       .  A
C2358      C2359   1.498       .  S
C2359      H2363   1.108       .  S
C2359      H2364   1.100       .  S
C2359      H2365   1.110       .  S
C2362      H2366   1.109       .  S
C2362      H2367   1.106       .  S
C2362      H2368   1.106       .  S
C2369      C2370   1.403       .  A
C2369      C2374   1.392       .  A
C2369      H2376   1.085       .  S
C2370      C2371   1.403       .  A
C2371      C2372   1.419       .  A
C2371      C2378   1.498       .  S
C2372      C2373   1.421       .  A
C2372      H2377   1.084       .  S
C2373      C2374   1.410       .  A
C2374      C2375   1.494       .  S
C2375      H2379   1.101       .  S
C2375      H2380   1.107       .  S
C2375      H2381   1.104       .  S
C2378      H2382   1.099       .  S
C2378      H2383   1.104       .  S
C2378      H2384   1.110       .  S
C2385      C2386   1.410       .  A
C2385      C2390   1.402       .  A
C2385      H2392   1.080       .  S
C2386      C2387   1.405       .  A
C2387      C2388   1.386       .  A
C2387      C2394   1.492       .  S
C2388      C2389   1.398       .  A
C2388      H2393   1.086       .  S
C2389      C2390   1.409       .  A
C2390      C2391   1.505       .  S
C2391      H2395   1.109       .  S
C2391      H2396   1.107       .  S
C2391      H2397   1.110       .  S
C2394      H2398   1.097       .  S
C2394      H2399   1.109       .  S
C2394      H2400   1.106       .  S
C2401      C2402   1.395       .  A
C2401      C2406   1.399       .  A
C2401      H2408   1.085       .  S
C2402      C2403   1.410       .  A
C2403      C2404   1.417       .  A
C2403      C2410   1.507       .  S
C2404      C2405   1.413       .  A
C2404      H2409   1.083       .  S
C2405      C2406   1.415       .  A
C2406      C2407   1.491   1_455  S
C2407      H2411   1.110       .  S
C2407      H2412   1.102       .  S
C2407      H2413   1.110       .  S
C2410      H2414   1.107       .  S
C2410      H2415   1.106       .  S
C2410      H2416   1.110       .  S
C2417      C2418   1.405       .  A
C2417      C2422   1.404       .  A
C2417      H2424   1.080       .  S
C2418      C2419   1.411       .  A
C2419      C2420   1.403       .  A
C2419      C2426   1.489       .  S
C2420      C2421   1.400       .  A
C2420      H2425   1.085       .  S
C2421      C2422   1.413       .  A
C2422      C2423   1.502       .  S
C2423      H2427   1.110       .  S
C2423      H2428   1.102       .  S
C2423      H2429   1.110       .  S
C2426      H2430   1.098       .  S
C2426      H2431   1.110       .  S
C2426      H2432   1.111       .  S
C2433      C2434   1.396       .  A
C2433      C2438   1.392       .  A
C2433      H2440   1.077       .  S
C2434      C2435   1.411       .  A
C2435      C2436   1.411       .  A
C2435      C2442   1.503   1_455  S
C2436      C2437   1.412       .  A
C2436      H2441   1.084       .  S
C2437      C2438   1.408       .  A
C2438      C2439   1.490       .  S
C2439      H2443   1.110       .  S
C2439      H2444   1.099       .  S
C2439      H2445   1.091       .  S
C2442      H2446   1.109       .  S
C2442      H2447   1.107       .  S
C2442      H2448   1.106   1_655  S
C2449      C2450   1.409       .  A
C2449      C2454   1.418       .  A
C2449      H2456   1.084       .  S
C2450      C2451   1.419       .  A
C2451      C2452   1.383       .  A
C2451      C2458   1.506       .  S
C2452      C2453   1.388       .  A
C2452      H2457   1.057       .  S
C2453      C2454   1.416       .  A
C2454      C2455   1.502       .  S
C2455      H2459   1.110       .  S
C2455      H2460   1.110       .  S
C2455      H2461   1.105       .  S
C2458      H2462   1.096       .  S
C2458      H2463   1.107       .  S
C2458      H2464   1.107       .  S
C2465      C2466   1.414       .  A
C2465      C2470   1.413       .  A
C2465      H2472   1.084       .  S
C2466      C2467   1.419       .  A
C2467      C2468   1.395       .  A
C2467      C2474   1.481       .  S
C2468      C2469   1.388       .  A
C2468      H2473   1.084       .  S
C2469      C2470   1.411       .  A
C2470      C2471   1.503       .  S
C2471      H2475   1.110       .  S
C2471      H2476   1.106       .  S
C2471      H2477   1.109       .  S
C2474      H2478   1.100       .  S
C2474      H2479   1.091       .  S
C2474      H2480   1.109       .  S
C2481      C2482   1.400       .  A
C2481      C2486   1.389       .  A
C2481      H2488   1.081       .  S
C2482      C2483   1.406       .  A
C2483      C2484   1.434       .  A
C2483      C2490   1.503       .  S
C2484      C2485   1.435       .  A
C2484      H2489   1.082       .  S
C2485      C2486   1.428       .  A
C2486      C2487   1.490       .  S
C2487      H2491   1.103       .  S
C2487      H2492   1.097       .  S
C2487      H2493   1.108       .  S
C2490      H2494   1.108       .  S
C2490      H2495   1.109       .  S
C2490      H2496   1.110       .  S
C2497      C2498   1.402       .  A
C2497      C2502   1.412       .  A
C2497      H2504   1.082       .  S
C2498      C2499   1.407       .  A
C2499      C2500   1.383       .  A
C2499      C2506   1.510       .  S
C2500      C2501   1.398       .  A
C2500      H2505   1.073       .  S
C2501      C2502   1.419       .  A
C2502      C2503   1.500       .  S
C2503      H2507   1.105       .  S
C2503      H2508   1.110       .  S
C2503      H2509   1.110       .  S
C2506      H2510   1.090       .  S
C2506      H2511   1.111       .  S
C2506      H2512   1.112       .  S
C2513      C2514   1.409       .  A
C2513      C2518   1.413       .  A
C2513      H2520   1.083       .  S
C2514      C2515   1.419       .  A
C2515      C2516   1.405       .  A
C2515      C2522   1.516       .  S
C2516      C2517   1.407       .  A
C2516      H2521   1.084       .  S
C2517      C2518   1.410       .  A
C2518      C2519   1.502       .  S
C2519      H2523   1.108       .  S
C2519      H2524   1.110       .  S
C2519      H2525   1.101       .  S
C2522      H2526   1.095       .  S
C2522      H2527   1.102       .  S
C2522      H2528   1.111       .  S
C2529      C2530   1.409       .  A
C2529      C2534   1.405       .  A
C2529      H2536   1.080       .  S
C2530      C2531   1.417       .  A
C2531      C2532   1.387       .  A
C2531      C2538   1.522       .  S
C2532      C2533   1.398       .  A
C2532      H2537   1.083       .  S
C2533      C2534   1.405       .  A
C2534      C2535   1.504       .  S
C2535      H2539   1.108       .  S
C2535      H2540   1.110       .  S
C2535      H2541   1.110       .  S
C2538      H2542   1.100       .  S
C2538      H2543   1.091       .  S
C2538      H2544   1.104       .  S
C2545      C2546   1.410       .  A
C2545      C2550   1.418       .  A
C2545      H2552   1.084       .  S
C2546      C2547   1.422       .  A
C2547      C2548   1.377       .  A
C2547      C2554   1.503       .  S
C2548      C2549   1.384       .  A
C2548      H2553   1.071       .  S
C2549      C2550   1.416       .  A
C2550      C2551   1.498       .  S
C2551      H2555   1.107       .  S
C2551      H2556   1.110       .  S
C2551      H2557   1.108       .  S
C2554      H2558   1.106       .  S
C2554      H2559   1.092       .  S
C2554      H2560   1.108       .  S
C2561      C2562   1.416       .  A
C2561      C2566   1.423       .  A
C2561      H2568   1.083       .  S
C2562      C2563   1.418       .  A
C2563      C2564   1.386       .  A
C2563      C2570   1.514       .  S
C2564      C2565   1.399       .  A
C2564      H2569   1.073       .  S
C2565      C2566   1.415       .  A
C2566      C2567   1.503       .  S
C2567      H2571   1.110       .  S
C2567      H2572   1.104       .  S
C2567      H2573   1.109       .  S
C2570      H2574   1.108       .  S
C2570      H2575   1.099       .  S
C2570      H2576   1.112       .  S
C2577      C2578   1.411       .  A
C2577      C2582   1.404       .  A
C2577      H2584   1.084   1_455  S
C2578      C2579   1.411       .  A
C2579      C2580   1.392       .  A
C2579      C2586   1.493       .  S
C2580      C2581   1.396       .  A
C2580      H2585   1.085       .  S
C2581      C2582   1.407       .  A
C2582      C2583   1.504       .  S
C2583      H2587   1.108       .  S
C2583      H2588   1.108   1_455  S
C2583      H2589   1.109       .  S
C2586      H2590   1.110       .  S
C2586      H2591   1.102       .  S
C2586      H2592   1.111       .  S
C2593      C2594   1.385       .  A
C2593      C2598   1.390       .  A
C2593      H2600   1.081       .  S
C2594      C2595   1.414       .  A
C2595      C2596   1.416       .  A
C2595      C2602   1.504       .  S
C2596      C2597   1.409       .  A
C2596      H2601   1.083       .  S
C2597      C2598   1.444       .  A
C2598      C2599   1.522       .  S
C2599      H2603   1.110       .  S
C2599      H2604   1.112       .  S
C2599      H2605   1.096       .  S
C2602      H2606   1.107       .  S
C2602      H2607   1.110       .  S
C2602      H2608   1.100       .  S
C2609      C2610   1.397       .  A
C2609      C2614   1.396       .  A
C2609      H2616   1.081       .  S
C2610      C2611   1.416       .  A
C2611      C2612   1.393       .  A
C2611      C2618   1.492   1_455  S
C2612      C2613   1.391       .  A
C2612      H2617   1.085       .  S
C2613      C2614   1.411       .  A
C2614      C2615   1.506       .  S
C2615      H2619   1.110       .  S
C2615      H2620   1.101       .  S
C2615      H2621   1.108       .  S
C2618      H2622   1.107       .  S
C2618      H2623   1.107       .  S
C2618      H2624   1.111       .  S
C2625      C2626   1.405       .  A
C2625      C2630   1.401       .  A
C2625      H2632   1.080       .  S
C2626      C2627   1.415       .  A
C2627      C2628   1.416       .  A
C2627      C2634   1.509       .  S
C2628      C2629   1.413       .  A
C2628      H2633   1.084       .  S
C2629      C2630   1.411       .  A
C2630      C2631   1.509       .  S
C2631      H2635   1.108       .  S
C2631      H2636   1.106       .  S
C2631      H2637   1.104       .  S
C2634      H2638   1.108       .  S
C2634      H2639   1.102       .  S
C2634      H2640   1.111       .  S
C2641      C2642   1.390       .  A
C2641      C2646   1.388       .  A
C2641      H2648   1.081       .  S
C2642      C2643   1.412       .  A
C2643      C2644   1.414       .  A
C2643      C2650   1.502       .  S
C2644      C2645   1.412       .  A
C2644      H2649   1.083       .  S
C2645      C2646   1.420       .  A
C2646      C2647   1.488       .  S
C2647      H2651   1.107       .  S
C2647      H2652   1.097       .  S
C2647      H2653   1.105       .  S
C2650      H2654   1.110       .  S
C2650      H2655   1.103       .  S
C2650      H2656   1.111       .  S
C2657      C2658   1.406       .  A
C2657      C2662   1.414       .  A
C2657      H2664   1.079       .  S
C2658      C2659   1.429       .  A
C2659      C2660   1.395       .  A
C2659      C2666   1.516       .  S
C2660      C2661   1.398       .  A
C2660      H2665   1.078       .  S
C2661      C2662   1.411       .  A
C2662      C2663   1.504       .  S
C2663      H2667   1.110       .  S
C2663      H2668   1.105       .  S
C2663      H2669   1.110       .  S
C2666      H2670   1.106       .  S
C2666      H2671   1.109       .  S
C2666      H2672   1.109       .  S
C2673      C2674   1.397       .  A
C2673      C2678   1.401       .  A
C2673      H2680   1.085       .  S
C2674      C2675   1.417       .  A
C2675      C2676   1.407       .  A
C2675      C2682   1.504       .  S
C2676      C2677   1.401       .  A
C2676      H2681   1.084       .  S
C2677      C2678   1.430       .  A
C2678      C2679   1.512       .  S
C2679      H2683   1.109       .  S
C2679      H2684   1.110       .  S
C2679      H2685   1.108       .  S
C2682      H2686   1.108       .  S
C2682      H2687   1.106       .  S
C2682      H2688   1.105       .  S
C2689      C2690   1.408       .  A
C2689      C2694   1.423       .  A
C2689      H2696   1.083       .  S
C2690      C2691   1.429       .  A
C2691      C2692   1.392       .  A
C2691      C2698   1.518       .  S
C2692      C2693   1.397       .  A
C2692      H2697   1.061       .  S
C2693      C2694   1.423       .  A
C2694      C2695   1.506       .  S
C2695      H2699   1.111       .  S
C2695      H2700   1.110       .  S
C2695      H2701   1.104       .  S
C2698      H2702   1.108       .  S
C2698      H2703   1.091       .  S
C2698      H2704   1.112       .  S
C2705      C2706   1.406       .  A
C2705      C2710   1.410       .  A
C2705      H2712   1.079       .  S
C2706      C2707   1.411       .  A
C2707      C2708   1.405       .  A
C2707      C2714   1.511       .  S
C2708      C2709   1.408       .  A
C2708      H2713   1.079       .  S
C2709      C2710   1.412       .  A
C2710      C2711   1.505       .  S
C2711      H2715   1.110       .  S
C2711      H2716   1.108       .  S
C2711      H2717   1.108       .  S
C2714      H2718   1.108       .  S
C2714      H2719   1.110       .  S
C2714      H2720   1.111       .  S
C2721      C2722   1.400       .  A
C2721      C2726   1.398       .  A
C2721      H2728   1.067       .  S
C2722      C2723   1.409       .  A
C2723      C2724   1.407       .  A
C2723      C2730   1.503       .  S
C2724      C2725   1.410       .  A
C2724      H2729   1.084       .  S
C2725      C2726   1.403       .  A
C2726      C2727   1.504       .  S
C2727      H2731   1.106       .  S
C2727      H2732   1.108       .  S
C2727      H2733   1.107       .  S
C2730      H2734   1.104       .  S
C2730      H2735   1.108       .  S
C2730      H2736   1.111       .  S
C2737      C2738   1.406       .  A
C2737      C2742   1.393       .  A
C2737      H2744   1.078       .  S
C2738      C2739   1.418       .  A
C2739      C2740   1.419       .  A
C2739      C2746   1.504       .  S
C2740      C2741   1.415       .  A
C2740      H2745   1.082       .  S
C2741      C2742   1.404       .  A
C2742      C2743   1.514       .  S
C2743      H2747   1.109       .  S
C2743      H2748   1.112       .  S
C2743      H2749   1.096       .  S
C2746      H2750   1.110       .  S
C2746      H2751   1.107       .  S
C2746      H2752   1.111       .  S
C2753      C2754   1.411       .  A
C2753      C2758   1.419       .  A
C2753      H2760   1.083       .  S
C2754      C2755   1.420       .  A
C2755      C2756   1.390       .  A
C2755      C2762   1.506       .  S
C2756      C2757   1.386       .  A
C2756      H2761   1.060       .  S
C2757      C2758   1.416       .  A
C2758      C2759   1.506       .  S
C2759      H2763   1.111       .  S
C2759      H2764   1.108       .  S
C2759      H2765   1.110       .  S
C2762      H2766   1.106       .  S
C2762      H2767   1.112       .  S
C2762      H2768   1.103       .  S
C2769      C2770   1.392       .  A
C2769      C2774   1.397       .  A
C2769      H2776   1.076       .  S
C2770      C2771   1.414       .  A
C2771      C2772   1.400       .  A
C2771      C2778   1.501       .  S
C2772      C2773   1.403       .  A
C2772      H2777   1.083       .  S
C2773      C2774   1.425       .  A
C2774      C2775   1.501       .  S
C2775      H2779   1.109       .  S
C2775      H2780   1.109       .  S
C2775      H2781   1.101       .  S
C2778      H2782   1.110       .  S
C2778      H2783   1.096       .  S
C2778      H2784   1.110       .  S
C2785      C2786   1.409       .  A
C2785      C2790   1.416       .  A
C2785      H2792   1.079       .  S
C2786      C2787   1.412       .  A
C2787      C2788   1.395       .  A
C2787      C2794   1.499       .  S
C2788      C2789   1.395       .  A
C2788      H2793   1.078       .  S
C2789      C2790   1.409       .  A
C2790      C2791   1.508       .  S
C2791      H2795   1.108       .  S
C2791      H2796   1.107       .  S
C2791      H2797   1.105       .  S
C2794      H2798   1.101       .  S
C2794      H2799   1.110       .  S
C2794      H2800   1.110       .  S
C2801      C2802   1.404       .  A
C2801      C2806   1.406       .  A
C2801      H2808   1.078       .  S
C2802      C2803   1.421       .  A
C2803      C2804   1.404       .  A
C2803      C2810   1.503   1_455  S
C2804      C2805   1.400       .  A
C2804      H2809   1.085       .  S
C2805      C2806   1.409       .  A
C2806      C2807   1.500       .  S
C2807      H2811   1.106       .  S
C2807      H2812   1.109       .  S
C2807      H2813   1.100       .  S
C2810      H2814   1.100       .  S
C2810      H2815   1.108       .  S
C2810      H2816   1.108   1_655  S
C2817      C2818   1.405       .  A
C2817      C2822   1.410       .  A
C2817      H2824   1.083       .  S
C2818      C2819   1.403       .  A
C2819      C2820   1.411       .  A
C2819      C2826   1.508       .  S
C2820      C2821   1.413       .  A
C2820      H2825   1.079       .  S
C2821      C2822   1.417       .  A
C2822      C2823   1.503       .  S
C2823      H2827   1.111       .  S
C2823      H2828   1.102       .  S
C2823      H2829   1.110       .  S
C2826      H2830   1.109       .  S
C2826      H2831   1.104   1_455  S
C2826      H2832   1.110   1_455  S
C2833      C2834   1.409       .  A
C2833      C2838   1.419       .  A
C2833      H2840   1.083       .  S
C2834      C2835   1.431       .  A
C2835      C2836   1.389       .  A
C2835      C2842   1.521       .  S
C2836      C2837   1.390       .  A
C2836      H2841   1.053       .  S
C2837      C2838   1.415       .  A
C2838      C2839   1.504       .  S
C2839      H2843   1.101       .  S
C2839      H2844   1.111       .  S
C2839      H2845   1.110       .  S
C2842      H2846   1.104       .  S
C2842      H2847   1.103       .  S
C2842      H2848   1.111       .  S
C2849      C2850   1.403       .  A
C2849      C2854   1.413       .  A
C2849      H2856   1.084       .  S
C2850      C2851   1.416       .  A
C2851      C2852   1.392       .  A
C2851      C2858   1.498       .  S
C2852      C2853   1.397       .  A
C2852      H2857   1.077       .  S
C2853      C2854   1.418       .  A
C2854      C2855   1.501       .  S
C2855      H2859   1.104       .  S
C2855      H2860   1.110       .  S
C2855      H2861   1.110       .  S
C2858      H2862   1.088       .  S
C2858      H2863   1.108       .  S
C2858      H2864   1.110       .  S
C2865      C2866   1.417       .  A
C2865      C2870   1.403       .  A
C2865      H2872   1.083       .  S
C2866      C2867   1.414       .  A
C2867      C2868   1.395       .  A
C2867      C2874   1.511       .  S
C2868      C2869   1.407       .  A
C2868      H2873   1.080       .  S
C2869      C2870   1.402       .  A
C2870      C2871   1.507       .  S
C2871      H2875   1.110       .  S
C2871      H2876   1.108       .  S
C2871      H2877   1.110       .  S
C2874      H2878   1.106       .  S
C2874      H2879   1.097       .  S
C2874      H2880   1.110       .  S
C2881      C2882   1.404       .  A
C2881      C2886   1.408       .  A
C2881      H2888   1.084       .  S
C2882      C2883   1.414       .  A
C2883      C2884   1.399       .  A
C2883      C2890   1.500       .  S
C2884      C2885   1.396       .  A
C2884      H2889   1.083       .  S
C2885      C2886   1.418       .  A
C2886      C2887   1.504       .  S
C2887      H2891   1.110       .  S
C2887      H2892   1.108       .  S
C2887      H2893   1.107       .  S
C2890      H2894   1.098       .  S
C2890      H2895   1.106       .  S
C2890      H2896   1.108       .  S
C2897      C2898   1.399       .  A
C2897      C2902   1.403       .  A
C2897      H2904   1.084       .  S
C2898      C2899   1.416       .  A
C2899      C2900   1.398       .  A
C2899      C2906   1.515       .  S
C2900      C2901   1.402       .  A
C2900      H2905   1.079       .  S
C2901      C2902   1.408       .  A
C2902      C2903   1.494       .  S
C2903      H2907   1.110       .  S
C2903      H2908   1.103       .  S
C2903      H2909   1.109       .  S
C2906      H2910   1.104       .  S
C2906      H2911   1.104       .  S
C2906      H2912   1.109       .  S
C2913      C2914   1.406       .  A
C2913      C2918   1.413       .  A
C2913      H2920   1.083       .  S
C2914      C2915   1.415       .  A
C2915      C2916   1.408       .  A
C2915      C2922   1.501       .  S
C2916      C2917   1.407       .  A
C2916      H2921   1.084       .  S
C2917      C2918   1.418       .  A
C2918      C2919   1.505       .  S
C2919      H2923   1.111       .  S
C2919      H2924   1.107       .  S
C2919      H2925   1.108       .  S
C2922      H2926   1.109   1_554  S
C2922      H2927   1.105   1_554  S
C2922      H2928   1.099       .  S
C2929      C2930   1.387       .  A
C2929      C2934   1.399       .  A
C2929      H2936   1.073       .  S
C2930      C2931   1.416       .  A
C2931      C2932   1.425       .  A
C2931      C2938   1.503       .  S
C2932      C2933   1.420       .  A
C2932      H2937   1.083       .  S
C2933      C2934   1.413       .  A
C2934      C2935   1.483       .  S
C2935      H2939   1.093       .  S
C2935      H2940   1.106       .  S
C2935      H2941   1.102       .  S
C2938      H2942   1.111       .  S
C2938      H2943   1.110       .  S
C2938      H2944   1.111       .  S
C2945      C2946   1.408       .  A
C2945      C2950   1.426       .  A
C2945      H2952   1.083       .  S
C2946      C2947   1.434       .  A
C2947      C2948   1.402       .  A
C2947      C2954   1.515       .  S
C2948      C2949   1.399       .  A
C2948      H2953   1.062       .  S
C2949      C2950   1.431       .  A
C2950      C2951   1.505       .  S
C2951      H2955   1.110       .  S
C2951      H2956   1.107       .  S
C2951      H2957   1.110       .  S
C2954      H2958   1.104       .  S
C2954      H2959   1.110   1_554  S
C2954      H2960   1.111       .  S
C2961      C2962   1.410       .  A
C2961      C2966   1.416       .  A
C2961      H2968   1.082       .  S
C2962      C2963   1.414       .  A
C2963      C2964   1.407       .  A
C2963      C2970   1.501       .  S
C2964      C2965   1.401       .  A
C2964      H2969   1.073       .  S
C2965      C2966   1.416       .  A
C2966      C2967   1.505       .  S
C2967      H2971   1.111       .  S
C2967      H2972   1.102       .  S
C2967      H2973   1.109       .  S
C2970      H2974   1.108       .  S
C2970      H2975   1.104       .  S
C2970      H2976   1.107       .  S
C2977      C2978   1.410       .  A
C2977      C2982   1.402       .  A
C2977      H2984   1.080       .  S
C2978      C2979   1.409       .  A
C2979      C2980   1.398       .  A
C2979      C2986   1.506       .  S
C2980      C2981   1.403       .  A
C2980      H2985   1.077       .  S
C2981      C2982   1.404       .  A
C2982      C2983   1.512       .  S
C2983      H2987   1.111       .  S
C2983      H2988   1.100       .  S
C2983      H2989   1.106       .  S
C2986      H2990   1.106       .  S
C2986      H2991   1.110       .  S
C2986      H2992   1.110       .  S
C2993      C2994   1.397       .  A
C2993      C2998   1.388       .  A
C2993      H3000   1.070       .  S
C2994      C2995   1.422       .  A
C2995      C2996   1.391       .  A
C2995      C3002   1.493       .  S
C2996      C2997   1.389       .  A
C2996      H3001   1.085       .  S
C2997      C2998   1.410       .  A
C2998      C2999   1.509       .  S
C2999      H3003   1.106       .  S
C2999      H3004   1.108       .  S
C2999      H3005   1.109       .  S
C3002      H3006   1.108       .  S
C3002      H3007   1.099       .  S
C3002      H3008   1.111       .  S
C3009      C3010   1.403       .  A
C3009      C3014   1.407       .  A
C3009      H3016   1.080       .  S
C3010      C3011   1.404       .  A
C3011      C3012   1.418       .  A
C3011      C3018   1.506       .  S
C3012      C3013   1.414       .  A
C3012      H3017   1.084       .  S
C3013      C3014   1.426       .  A
C3014      C3015   1.516       .  S
C3015      H3019   1.104       .  S
C3015      H3020   1.101       .  S
C3015      H3021   1.109       .  S
C3018      H3022   1.103       .  S
C3018      H3023   1.101       .  S
C3018      H3024   1.106       .  S
C3025      C3026   1.402       .  A
C3025      C3030   1.400       .  A
C3025      H3032   1.084       .  S
C3026      C3027   1.420       .  A
C3027      C3028   1.388       .  A
C3027      C3034   1.518       .  S
C3028      C3029   1.398       .  A
C3028      H3033   1.081       .  S
C3029      C3030   1.407       .  A
C3030      C3031   1.501       .  S
C3031      H3035   1.110       .  S
C3031      H3036   1.102       .  S
C3031      H3037   1.110       .  S
C3034      H3038   1.097       .  S
C3034      H3039   1.105       .  S
C3034      H3040   1.099       .  S
C3041      C3042   1.392       .  A
C3041      C3046   1.392       .  A
C3041      H3048   1.077       .  S
C3042      C3043   1.417       .  A
C3043      C3044   1.417       .  A
C3043      C3050   1.502       .  S
C3044      C3045   1.412       .  A
C3044      H3049   1.083       .  S
C3045      C3046   1.415       .  A
C3046      C3047   1.485       .  S
C3047      H3051   1.111       .  S
C3047      H3052   1.110       .  S
C3047      H3053   1.103       .  S
C3050      H3054   1.109       .  S
C3050      H3055   1.110       .  S
C3050      H3056   1.110       .  S
C3057      C3058   1.398       .  A
C3057      C3062   1.399       .  A
C3057      H3064   1.077       .  S
C3058      C3059   1.414       .  A
C3059      C3060   1.415       .  A
C3059      C3066   1.504       .  S
C3060      C3061   1.416       .  A
C3060      H3065   1.084       .  S
C3061      C3062   1.417       .  A
C3062      C3063   1.494       .  S
C3063      H3067   1.107       .  S
C3063      H3068   1.096       .  S
C3063      H3069   1.109       .  S
C3066      H3070   1.109       .  S
C3066      H3071   1.106       .  S
C3066      H3072   1.106       .  S
C3073      C3074   1.390       .  A
C3073      C3078   1.385       .  A
C3073      H3080   1.066       .  S
C3074      C3075   1.408       .  A
C3075      C3076   1.415       .  A
C3075      C3082   1.496       .  S
C3076      C3077   1.410       .  A
C3076      H3081   1.082       .  S
C3077      C3078   1.418       .  A
C3078      C3079   1.514       .  S
C3079      H3083   1.109       .  S
C3079      H3084   1.109       .  S
C3079      H3085   1.105       .  S
C3082      H3086   1.094       .  S
C3082      H3087   1.109       .  S
C3082      H3088   1.109       .  S
C3089      C3090   1.407       .  A
C3089      C3094   1.406       .  A
C3089      H3096   1.084       .  S
C3090      C3091   1.411       .  A
C3091      C3092   1.399       .  A
C3091      C3098   1.503       .  S
C3092      C3093   1.403       .  A
C3092      H3097   1.080       .  S
C3093      C3094   1.411       .  A
C3094      C3095   1.506       .  S
C3095      H3099   1.111       .  S
C3095      H3100   1.109       .  S
C3095      H3101   1.110       .  S
C3098      H3102   1.095       .  S
C3098      H3103   1.108       .  S
C3098      H3104   1.111       .  S
C3105      C3106   1.398       .  A
C3105      C3110   1.403       .  A
C3105      H3112   1.082       .  S
C3106      C3107   1.417       .  A
C3107      C3108   1.404       .  A
C3107      C3114   1.506       .  S
C3108      C3109   1.401       .  A
C3108      H3113   1.084       .  S
C3109      C3110   1.412       .  A
C3110      C3111   1.514       .  S
C3111      H3115   1.109       .  S
C3111      H3116   1.098       .  S
C3111      H3117   1.103       .  S
C3114      H3118   1.110       .  S
C3114      H3119   1.109       .  S
C3114      H3120   1.110       .  S
C3121      C3122   1.401       .  A
C3121      C3126   1.405       .  A
C3121      H3128   1.084       .  S
C3122      C3123   1.424       .  A
C3123      C3124   1.380       .  A
C3123      C3130   1.486       .  S
C3124      C3125   1.377       .  A
C3124      H3129   1.084       .  S
C3125      C3126   1.419       .  A
C3126      C3127   1.504       .  S
C3127      H3131   1.109       .  S
C3127      H3132   1.110       .  S
C3127      H3133   1.108       .  S
C3130      H3134   1.097       .  S
C3130      H3135   1.108       .  S
C3130      H3136   1.112       .  S
C3137      C3138   1.404       .  A
C3137      C3142   1.406       .  A
C3137      H3144   1.075       .  S
C3138      C3139   1.420       .  A
C3139      C3140   1.416       .  A
C3139      C3146   1.511       .  S
C3140      C3141   1.413       .  A
C3140      H3145   1.083       .  S
C3141      C3142   1.419       .  A
C3142      C3143   1.504       .  S
C3143      H3147   1.110       .  S
C3143      H3148   1.106       .  S
C3143      H3149   1.109       .  S
C3146      H3150   1.110       .  S
C3146      H3151   1.109       .  S
C3146      H3152   1.106       .  S
C3153      C3154   1.393       .  A
C3153      C3158   1.387       .  A
C3153      H3160   1.072       .  S
C3154      C3155   1.407       .  A
C3155      C3156   1.408       .  A
C3155      C3162   1.503       .  S
C3156      C3157   1.405       .  A
C3156      H3161   1.083       .  S
C3157      C3158   1.420       .  A
C3158      C3159   1.517       .  S
C3159      H3163   1.103       .  S
C3159      H3164   1.111       .  S
C3159      H3165   1.108       .  S
C3162      H3166   1.097       .  S
C3162      H3167   1.108       .  S
C3162      H3168   1.111       .  S
C3169      C3170   1.410       .  A
C3169      C3174   1.407       .  A
C3169      H3176   1.077       .  S
C3170      C3171   1.414       .  A
C3171      C3172   1.399       .  A
C3171      C3178   1.491       .  S
C3172      C3173   1.397       .  A
C3172      H3177   1.082       .  S
C3173      C3174   1.411       .  A
C3174      C3175   1.505       .  S
C3175      H3179   1.110       .  S
C3175      H3180   1.108       .  S
C3175      H3181   1.109       .  S
C3178      H3182   1.108       .  S
C3178      H3183   1.101       .  S
C3178      H3184   1.111       .  S
C3185      C3186   1.391       .  A
C3185      C3190   1.394       .  A
C3185      H3192   1.080       .  S
C3186      C3187   1.413       .  A
C3187      C3188   1.396       .  A
C3187      C3194   1.481       .  S
C3188      C3189   1.389       .  A
C3188      H3193   1.085       .  S
C3189      C3190   1.428       .  A
C3190      C3191   1.510       .  S
C3191      H3195   1.105       .  S
C3191      H3196   1.108       .  S
C3191      H3197   1.108       .  S
C3194      H3198   1.105       .  S
C3194      H3199   1.109       .  S
C3194      H3200   1.111       .  S
C3201      C3202   1.405       .  A
C3201      C3206   1.401       .  A
C3201      H3208   1.072       .  S
C3202      C3203   1.406       .  A
C3203      C3204   1.385       .  A
C3203      C3210   1.485       .  S
C3204      C3205   1.393       .  A
C3204      H3209   1.082       .  S
C3205      C3206   1.402       .  A
C3206      C3207   1.504       .  S
C3207      H3211   1.111       .  S
C3207      H3212   1.108       .  S
C3207      H3213   1.108       .  S
C3210      H3214   1.102       .  S
C3210      H3215   1.110       .  S
C3210      H3216   1.111       .  S
C3217      C3218   1.408       .  A
C3217      C3222   1.414       .  A
C3217      H3224   1.083       .  S
C3218      C3219   1.416       .  A
C3219      C3220   1.415       .  A
C3219      C3226   1.502       .  S
C3220      C3221   1.407       .  A
C3220      H3225   1.080       .  S
C3221      C3222   1.418       .  A
C3222      C3223   1.507       .  S
C3223      H3227   1.110       .  S
C3223      H3228   1.100       .  S
C3223      H3229   1.109       .  S
C3226      H3230   1.103       .  S
C3226      H3231   1.108       .  S
C3226      H3232   1.111       .  S
C3233      C3234   1.401       .  A
C3233      C3238   1.397       .  A
C3233      H3240   1.077       .  S
C3234      C3235   1.412       .  A
C3235      C3236   1.406       .  A
C3235      C3242   1.502       .  S
C3236      C3237   1.410       .  A
C3236      H3241   1.085       .  S
C3237      C3238   1.418       .  A
C3238      C3239   1.507       .  S
C3239      H3243   1.106       .  S
C3239      H3244   1.110       .  S
C3239      H3245   1.109       .  S
C3242      H3246   1.109       .  S
C3242      H3247   1.102       .  S
C3242      H3248   1.105       .  S
C3249      C3250   1.391       .  A
C3249      C3254   1.380       .  A
C3249      H3256   1.084       .  S
C3250      C3251   1.412       .  A
C3251      C3252   1.409       .  A
C3251      C3258   1.503       .  S
C3252      C3253   1.411       .  A
C3252      H3257   1.084       .  S
C3253      C3254   1.412       .  A
C3254      C3255   1.496       .  S
C3255      H3259   1.110       .  S
C3255      H3260   1.104       .  S
C3255      H3261   1.098       .  S
C3258      H3262   1.110       .  S
C3258      H3263   1.108       .  S
C3258      H3264   1.110       .  S
C3265      C3266   1.403       .  A
C3265      C3270   1.395       .  A
C3265      H3272   1.084       .  S
C3266      C3267   1.407       .  A
C3267      C3268   1.399       .  A
C3267      C3274   1.508       .  S
C3268      C3269   1.406       .  A
C3268      H3273   1.084       .  S
C3269      C3270   1.411       .  A
C3270      C3271   1.507       .  S
C3271      H3275   1.110       .  S
C3271      H3276   1.106       .  S
C3271      H3277   1.110       .  S
C3274      H3278   1.107       .  S
C3274      H3279   1.109       .  S
C3274      H3280   1.111       .  S
C3281      C3282   1.387       .  A
C3281      C3286   1.382       .  A
C3281      H3288   1.053       .  S
C3282      C3283   1.415       .  A
C3283      C3284   1.428       .  A
C3283      C3290   1.502       .  S
C3284      C3285   1.422       .  A
C3284      H3289   1.083       .  S
C3285      C3286   1.401       .  A
C3286      C3287   1.479       .  S
C3287      H3291   1.107       .  S
C3287      H3292   1.103       .  S
C3287      H3293   1.098       .  S
C3290      H3294   1.109       .  S
C3290      H3295   1.110       .  S
C3290      H3296   1.110       .  S
C3297      C3298   1.409   1_556  A
C3297      C3302   1.399   1_556  A
C3297      H3304   1.082       .  S
C3298      C3299   1.412       .  A
C3299      C3300   1.389       .  A
C3299      C3306   1.510       .  S
C3300      C3301   1.401       .  A
C3300      H3305   1.080       .  S
C3301      C3302   1.411       .  A
C3302      C3303   1.506   1_554  S
C3303      H3307   1.111       .  S
C3303      H3308   1.106   1_556  S
C3303      H3309   1.110       .  S
C3306      H3310   1.086       .  S
C3306      H3311   1.093       .  S
C3306      H3312   1.110       .  S
C3313      C3314   1.408       .  A
C3313      C3318   1.398       .  A
C3313      H3320   1.078       .  S
C3314      C3315   1.412       .  A
C3315      C3316   1.421       .  A
C3315      C3322   1.506       .  S
C3316      C3317   1.419       .  A
C3316      H3321   1.084       .  S
C3317      C3318   1.409       .  A
C3318      C3319   1.504       .  S
C3319      H3323   1.106       .  S
C3319      H3324   1.099       .  S
C3319      H3325   1.108       .  S
C3322      H3326   1.108       .  S
C3322      H3327   1.101       .  S
C3322      H3328   1.110       .  S
C3329      C3330   1.412       .  A
C3329      C3334   1.414       .  A
C3329      H3336   1.082   1_554  S
C3330      C3331   1.415       .  A
C3331      C3332   1.377       .  A
C3331      C3338   1.484       .  S
C3332      C3333   1.382       .  A
C3332      H3337   1.074       .  S
C3333      C3334   1.413       .  A
C3334      C3335   1.504       .  S
C3335      H3339   1.110   1_554  S
C3335      H3340   1.110       .  S
C3335      H3341   1.109       .  S
C3338      H3342   1.107       .  S
C3338      H3343   1.103       .  S
C3338      H3344   1.112       .  S
C3345      C3346   1.404       .  A
C3345      C3350   1.405       .  A
C3345      H3352   1.077       .  S
C3346      C3347   1.405       .  A
C3347      C3348   1.400       .  A
C3347      C3354   1.488       .  S
C3348      C3349   1.396       .  A
C3348      H3353   1.078       .  S
C3349      C3350   1.410       .  A
C3350      C3351   1.505       .  S
C3351      H3355   1.110       .  S
C3351      H3356   1.110       .  S
C3351      H3357   1.109       .  S
C3354      H3358   1.078       .  S
C3354      H3359   1.103       .  S
C3354      H3360   1.103       .  S
C3361      C3362   1.398       .  A
C3361      C3366   1.403       .  A
C3361      H3368   1.083       .  S
C3362      C3363   1.413       .  A
C3363      C3364   1.398       .  A
C3363      C3370   1.486       .  S
C3364      C3365   1.389       .  A
C3364      H3369   1.085       .  S
C3365      C3366   1.420       .  A
C3366      C3367   1.500       .  S
C3367      H3371   1.110       .  S
C3367      H3372   1.105       .  S
C3367      H3373   1.110       .  S
C3370      H3374   1.107       .  S
C3370      H3375   1.107       .  S
C3370      H3376   1.107       .  S
C3377      C3378   1.413       .  A
C3377      C3382   1.384       .  A
C3377      H3384   1.080       .  S
C3378      C3379   1.411       .  A
C3379      C3380   1.419       .  A
C3379      C3386   1.506       .  S
C3380      C3381   1.418       .  A
C3380      H3385   1.084       .  S
C3381      C3382   1.406       .  A
C3382      C3383   1.505       .  S
C3383      H3387   1.104       .  S
C3383      H3388   1.110       .  S
C3383      H3389   1.103       .  S
C3386      H3390   1.102       .  S
C3386      H3391   1.106       .  S
C3386      H3392   1.111       .  S
C3393      C3394   1.406       .  A
C3393      C3398   1.407       .  A
C3393      H3400   1.083       .  S
C3394      C3395   1.430       .  A
C3395      C3396   1.386       .  A
C3395      C3402   1.512       .  S
C3396      C3397   1.386       .  A
C3396      H3401   1.070       .  S
C3397      C3398   1.408       .  A
C3398      C3399   1.504       .  S
C3399      H3403   1.110       .  S
C3399      H3404   1.109       .  S
C3399      H3405   1.111       .  S
C3402      H3406   1.102       .  S
C3402      H3407   1.109       .  S
C3402      H3408   1.111       .  S
C3409      C3410   1.403       .  A
C3409      C3414   1.402       .  A
C3409      H3416   1.081       .  S
C3410      C3411   1.427       .  A
C3411      C3412   1.390       .  A
C3411      C3418   1.495   1_554  S
C3412      C3413   1.387       .  A
C3412      H3417   1.085       .  S
C3413      C3414   1.418       .  A
C3414      C3415   1.508       .  S
C3415      H3419   1.104       .  S
C3415      H3420   1.105       .  S
C3415      H3421   1.107       .  S
C3418      H3422   1.105       .  S
C3418      H3423   1.111       .  S
C3418      H3424   1.111       .  S
C3425      C3426   1.417       .  A
C3425      C3430   1.421       .  A
C3425      H3432   1.081       .  S
C3426      C3427   1.404       .  A
C3427      C3428   1.402       .  A
C3427      C3434   1.514       .  S
C3428      C3429   1.404       .  A
C3428      H3433   1.068       .  S
C3429      C3430   1.415       .  A
C3430      C3431   1.494       .  S
C3431      H3435   1.109       .  S
C3431      H3436   1.103       .  S
C3431      H3437   1.105       .  S
C3434      H3438   1.102       .  S
C3434      H3439   1.109       .  S
C3434      H3440   1.112       .  S
C3441      C3442   1.407       .  A
C3441      C3446   1.411       .  A
C3441      H3448   1.064   1_554  S
C3442      C3443   1.403       .  A
C3443      C3444   1.381       .  A
C3443      C3450   1.501       .  S
C3444      C3445   1.394       .  A
C3444      H3449   1.068       .  S
C3445      C3446   1.407       .  A
C3446      C3447   1.504       .  S
C3447      H3451   1.110   1_554  S
C3447      H3452   1.110   1_554  S
C3447      H3453   1.108       .  S
C3450      H3454   1.109       .  S
C3450      H3455   1.106       .  S
C3450      H3456   1.106       .  S
C3457      C3458   1.395       .  A
C3457      C3462   1.399       .  A
C3457      H3464   1.077       .  S
C3458      C3459   1.413       .  A
C3459      C3460   1.413       .  A
C3459      C3466   1.508       .  S
C3460      C3461   1.410       .  A
C3460      H3465   1.082       .  S
C3461      C3462   1.431       .  A
C3462      C3463   1.506       .  S
C3463      H3467   1.109       .  S
C3463      H3468   1.111       .  S
C3463      H3469   1.097       .  S
C3466      H3470   1.097       .  S
C3466      H3471   1.103       .  S
C3466      H3472   1.110       .  S
C3473      C3474   1.412       .  A
C3473      C3478   1.406       .  A
C3473      H3480   1.082       .  S
C3474      C3475   1.418       .  A
C3475      C3476   1.395       .  A
C3475      C3482   1.511       .  S
C3476      C3477   1.400       .  A
C3476      H3481   1.084       .  S
C3477      C3478   1.402       .  A
C3478      C3479   1.504       .  S
C3479      H3483   1.105       .  S
C3479      H3484   1.108       .  S
C3479      H3485   1.109       .  S
C3482      H3486   1.103       .  S
C3482      H3487   1.088       .  S
C3482      H3488   1.110       .  S
C3489      C3490   1.395       .  A
C3489      C3494   1.395       .  A
C3489      H3496   1.084       .  S
C3490      C3491   1.412       .  A
C3491      C3492   1.418       .  A
C3491      C3498   1.501       .  S
C3492      C3493   1.410       .  A
C3492      H3497   1.083       .  S
C3493      C3494   1.413       .  A
C3494      C3495   1.495       .  S
C3495      H3499   1.110       .  S
C3495      H3500   1.093       .  S
C3495      H3501   1.110       .  S
C3498      H3502   1.109       .  S
C3498      H3503   1.107       .  S
C3498      H3504   1.109       .  S
C3505      C3506   1.401       .  A
C3505      C3510   1.406       .  A
C3505      H3512   1.082       .  S
C3506      C3507   1.435       .  A
C3507      C3508   1.403       .  A
C3507      C3514   1.506       .  S
C3508      C3509   1.393       .  A
C3508      H3513   1.084       .  S
C3509      C3510   1.414       .  A
C3510      C3511   1.504       .  S
C3511      H3515   1.107       .  S
C3511      H3516   1.108       .  S
C3511      H3517   1.107       .  S
C3514      H3518   1.109       .  S
C3514      H3519   1.105       .  S
C3514      H3520   1.111       .  S
C3521      C3522   1.405       .  A
C3521      C3526   1.379       .  A
C3521      H3528   1.081       .  S
C3522      C3523   1.406       .  A
C3523      C3524   1.419       .  A
C3523      C3530   1.505       .  S
C3524      C3525   1.423       .  A
C3524      H3529   1.083       .  S
C3525      C3526   1.408       .  A
C3526      C3527   1.495       .  S
C3527      H3531   1.112       .  S
C3527      H3532   1.101       .  S
C3527      H3533   1.099       .  S
C3530      H3534   1.106       .  S
C3530      H3535   1.103       .  S
C3530      H3536   1.110       .  S
C3537      C3538   1.376       .  A
C3537      C3542   1.380       .  A
C3537      H3544   1.083       .  S
C3538      C3539   1.398       .  A
C3539      C3540   1.417       .  A
C3539      C3546   1.497       .  S
C3540      C3541   1.421       .  A
C3540      H3545   1.082       .  S
C3541      C3542   1.431       .  A
C3542      C3543   1.476       .  S
C3543      H3547   1.112       .  S
C3543      H3548   1.101       .  S
C3543      H3549   1.092       .  S
C3546      H3550   1.108       .  S
C3546      H3551   1.108       .  S
C3546      H3552   1.110       .  S
C3553      C3554   1.404       .  A
C3553      C3558   1.410       .  A
C3553      H3560   1.080       .  S
C3554      C3555   1.414       .  A
C3555      C3556   1.407       .  A
C3555      C3562   1.503       .  S
C3556      C3557   1.401       .  A
C3556      H3561   1.082       .  S
C3557      C3558   1.410       .  A
C3558      C3559   1.504       .  S
C3559      H3563   1.109       .  S
C3559      H3564   1.109       .  S
C3559      H3565   1.109       .  S
C3562      H3566   1.096       .  S
C3562      H3567   1.095       .  S
C3562      H3568   1.105       .  S
C3569      C3570   1.394       .  A
C3569      C3574   1.392       .  A
C3569      H3576   1.081       .  S
C3570      C3571   1.420       .  A
C3571      C3572   1.411       .  A
C3571      C3578   1.503   1_554  S
C3572      C3573   1.404       .  A
C3572      H3577   1.084       .  S
C3573      C3574   1.415       .  A
C3574      C3575   1.497       .  S
C3575      H3579   1.098       .  S
C3575      H3580   1.100       .  S
C3575      H3581   1.109       .  S
C3578      H3582   1.098       .  S
C3578      H3583   1.109       .  S
C3578      H3584   1.109       .  S
C3585      C3586   1.424       .  A
C3585      C3590   1.398       .  A
C3585      H3592   1.083       .  S
C3586      C3587   1.419       .  A
C3587      C3588   1.433       .  A
C3587      C3594   1.503       .  S
C3588      C3589   1.425       .  A
C3588      H3593   1.082       .  S
C3589      C3590   1.400       .  A
C3590      C3591   1.509       .  S
C3591      H3595   1.112   1_554  S
C3591      H3596   1.103       .  S
C3591      H3597   1.109       .  S
C3594      H3598   1.102       .  S
C3594      H3599   1.106   1_554  S
C3594      H3600   1.110       .  S
C3601      C3602   1.397       .  A
C3601      C3606   1.393       .  A
C3601      H3608   1.080       .  S
C3602      C3603   1.405       .  A
C3603      C3604   1.405       .  A
C3603      C3610   1.505       .  S
C3604      C3605   1.408       .  A
C3604      H3609   1.084       .  S
C3605      C3606   1.434       .  A
C3606      C3607   1.527       .  S
C3607      H3611   1.093       .  S
C3607      H3612   1.099       .  S
C3607      H3613   1.102       .  S
C3610      H3614   1.098       .  S
C3610      H3615   1.109       .  S
C3610      H3616   1.111       .  S
C3617      C3618   1.416       .  A
C3617      C3622   1.417       .  A
C3617      H3624   1.080       .  S
C3618      C3619   1.411       .  A
C3619      C3620   1.385       .  A
C3619      C3626   1.480       .  S
C3620      C3621   1.387       .  A
C3620      H3625   1.086       .  S
C3621      C3622   1.409       .  A
C3622      C3623   1.504       .  S
C3623      H3627   1.111       .  S
C3623      H3628   1.110       .  S
C3623      H3629   1.104       .  S
C3626      H3630   1.103       .  S
C3626      H3631   1.107       .  S
C3626      H3632   1.103       .  S
C3633      C3634   1.415       .  A
C3633      C3638   1.416       .  A
C3633      H3640   1.081       .  S
C3634      C3635   1.405       .  A
C3635      C3636   1.378       .  A
C3635      C3642   1.479       .  S
C3636      C3637   1.387       .  A
C3636      H3641   1.072       .  S
C3637      C3638   1.409       .  A
C3638      C3639   1.504       .  S
C3639      H3643   1.109       .  S
C3639      H3644   1.109       .  S
C3639      H3645   1.098       .  S
C3642      H3646   1.098       .  S
C3642      H3647   1.107       .  S
C3642      H3648   1.099       .  S
C3649      C3650   1.391       .  A
C3649      C3654   1.402       .  A
C3649      H3656   1.085       .  S
C3650      C3651   1.417       .  A
C3651      C3652   1.408       .  A
C3651      C3658   1.506       .  S
C3652      C3653   1.403       .  A
C3652      H3657   1.082       .  S
C3653      C3654   1.425       .  A
C3654      C3655   1.490       .  S
C3655      H3659   1.111       .  S
C3655      H3660   1.110       .  S
C3655      H3661   1.105       .  S
C3658      H3662   1.107       .  S
C3658      H3663   1.105       .  S
C3658      H3664   1.107       .  S
C3665      C3666   1.410       .  A
C3665      C3670   1.424       .  A
C3665      H3672   1.084       .  S
C3666      C3667   1.424       .  A
C3667      C3668   1.392       .  A
C3667      C3674   1.518       .  S
C3668      C3669   1.396       .  A
C3668      H3673   1.051       .  S
C3669      C3670   1.425       .  A
C3670      C3671   1.506       .  S
C3671      H3675   1.110       .  S
C3671      H3676   1.110       .  S
C3671      H3677   1.105       .  S
C3674      H3678   1.096       .  S
C3674      H3679   1.107       .  S
C3674      H3680   1.112       .  S
C3681      C3682   1.406       .  A
C3681      C3686   1.385       .  A
C3681      H3688   1.076       .  S
C3682      C3683   1.412       .  A
C3683      C3684   1.414       .  A
C3683      C3690   1.504       .  S
C3684      C3685   1.413       .  A
C3684      H3689   1.083       .  S
C3685      C3686   1.405       .  A
C3686      C3687   1.500       .  S
C3687      H3691   1.111       .  S
C3687      H3692   1.091       .  S
C3687      H3693   1.108       .  S
C3690      H3694   1.104       .  S
C3690      H3695   1.110       .  S
C3690      H3696   1.111       .  S
C3697      C3698   1.403       .  A
C3697      C3702   1.399       .  A
C3697      H3704   1.078       .  S
C3698      C3699   1.411       .  A
C3699      C3700   1.413       .  A
C3699      C3706   1.502       .  S
C3700      C3701   1.407       .  A
C3700      H3705   1.084       .  S
C3701      C3702   1.419       .  A
C3702      C3703   1.513       .  S
C3703      H3707   1.105       .  S
C3703      H3708   1.108       .  S
C3703      H3709   1.104       .  S
C3706      H3710   1.103       .  S
C3706      H3711   1.110       .  S
C3706      H3712   1.109       .  S
C3713      C3714   1.402       .  A
C3713      C3718   1.396       .  A
C3713      H3720   1.083       .  S
C3714      C3715   1.408       .  A
C3715      C3716   1.410       .  A
C3715      C3722   1.505       .  S
C3716      C3717   1.416       .  A
C3716      H3721   1.084       .  S
C3717      C3718   1.417       .  A
C3718      C3719   1.503       .  S
C3719      H3723   1.109       .  S
C3719      H3724   1.092       .  S
C3719      H3725   1.096       .  S
C3722      H3726   1.108       .  S
C3722      H3727   1.109       .  S
C3722      H3728   1.108       .  S
C3729      C3730   1.397       .  A
C3729      C3734   1.404       .  A
C3729      H3736   1.084       .  S
C3730      C3731   1.407       .  A
C3731      C3732   1.394       .  A
C3731      C3738   1.506       .  S
C3732      C3733   1.392       .  A
C3732      H3737   1.055       .  S
C3733      C3734   1.414       .  A
C3734      C3735   1.487       .  S
C3735      H3739   1.111       .  S
C3735      H3740   1.104       .  S
C3735      H3741   1.111       .  S
C3738      H3742   1.107       .  S
C3738      H3743   1.105       .  S
C3738      H3744   1.110       .  S
C3745      C3746   1.414       .  A
C3745      C3750   1.420       .  A
C3745      H3752   1.082       .  S
C3746      C3747   1.429       .  A
C3747      C3748   1.410       .  A
C3747      C3754   1.507       .  S
C3748      C3749   1.401       .  A
C3748      H3753   1.083       .  S
C3749      C3750   1.402       .  A
C3750      C3751   1.506       .  S
C3751      H3755   1.109       .  S
C3751      H3756   1.108       .  S
C3751      H3757   1.104       .  S
C3754      H3758   1.107       .  S
C3754      H3759   1.110       .  S
C3754      H3760   1.106       .  S
C3761      C3762   1.408       .  A
C3761      C3766   1.417       .  A
C3761      H3768   1.084       .  S
C3762      C3763   1.427       .  A
C3763      C3764   1.390       .  A
C3763      C3770   1.496       .  S
C3764      C3765   1.384       .  A
C3764      H3769   1.064       .  S
C3765      C3766   1.422       .  A
C3766      C3767   1.502       .  S
C3767      H3771   1.110       .  S
C3767      H3772   1.108       .  S
C3767      H3773   1.110       .  S
C3770      H3774   1.099       .  S
C3770      H3775   1.108       .  S
C3770      H3776   1.111       .  S
C3777      C3778   1.408       .  A
C3777      C3782   1.414       .  A
C3777      H3784   1.084       .  S
C3778      C3779   1.397       .  A
C3779      C3780   1.395       .  A
C3779      C3786   1.515       .  S
C3780      C3781   1.402       .  A
C3780      H3785   1.071       .  S
C3781      C3782   1.414       .  A
C3782      C3783   1.503       .  S
C3783      H3787   1.111       .  S
C3783      H3788   1.109       .  S
C3783      H3789   1.109       .  S
C3786      H3790   1.104       .  S
C3786      H3791   1.093       .  S
C3786      H3792   1.104       .  S
C3793      C3794   1.394       .  A
C3793      C3798   1.399       .  A
C3793      H3800   1.085       .  S
C3794      C3795   1.416       .  A
C3795      C3796   1.399       .  A
C3795      C3802   1.503       .  S
C3796      C3797   1.396       .  A
C3796      H3801   1.073       .  S
C3797      C3798   1.419       .  A
C3798      C3799   1.495       .  S
C3799      H3803   1.111       .  S
C3799      H3804   1.103       .  S
C3799      H3805   1.108       .  S
C3802      H3806   1.111       .  S
C3802      H3807   1.107       .  S
C3802      H3808   1.107       .  S
C3809      C3810   1.410       .  A
C3809      C3814   1.427       .  A
C3809      H3816   1.079       .  S
C3810      C3811   1.429       .  A
C3811      C3812   1.398       .  A
C3811      C3818   1.477       .  S
C3812      C3813   1.382       .  A
C3812      H3817   1.083       .  S
C3813      C3814   1.418       .  A
C3814      C3815   1.508       .  S
C3815      H3819   1.106       .  S
C3815      H3820   1.109       .  S
C3815      H3821   1.108       .  S
C3818      H3822   1.100       .  S
C3818      H3823   1.106       .  S
C3818      H3824   1.112       .  S
C3825      C3826   1.413       .  A
C3825      C3830   1.404       .  A
C3825      H3832   1.079       .  S
C3826      C3827   1.414       .  A
C3827      C3828   1.416       .  A
C3827      C3834   1.504       .  S
C3828      C3829   1.414       .  A
C3828      H3833   1.083       .  S
C3829      C3830   1.405       .  A
C3830      C3831   1.505       .  S
C3831      H3835   1.110       .  S
C3831      H3836   1.098       .  S
C3831      H3837   1.107       .  S
C3834      H3838   1.110       .  S
C3834      H3839   1.108       .  S
C3834      H3840   1.110       .  S
C3841      C3842   1.408       .  A
C3841      C3846   1.401       .  A
C3841      H3848   1.084       .  S
C3842      C3843   1.411       .  A
C3843      C3844   1.402       .  A
C3843      C3850   1.513       .  S
C3844      C3845   1.404       .  A
C3844      H3849   1.083       .  S
C3845      C3846   1.419       .  A
C3846      C3847   1.507       .  S
C3847      H3851   1.109       .  S
C3847      H3852   1.108       .  S
C3847      H3853   1.110       .  S
C3850      H3854   1.089       .  S
C3850      H3855   1.102       .  S
C3850      H3856   1.103       .  S
C3857      C3858   1.405       .  A
C3857      C3862   1.412       .  A
C3857      H3864   1.078       .  S
C3858      C3859   1.431       .  A
C3859      C3860   1.395       .  A
C3859      C3866   1.493       .  S
C3860      C3861   1.383       .  A
C3860      H3865   1.082       .  S
C3861      C3862   1.413       .  A
C3862      C3863   1.507       .  S
C3863      H3867   1.109       .  S
C3863      H3868   1.106       .  S
C3863      H3869   1.111       .  S
C3866      H3870   1.103       .  S
C3866      H3871   1.104       .  S
C3866      H3872   1.111       .  S
C3873      C3874   1.404       .  A
C3873      C3878   1.376       .  A
C3873      H3880   1.070       .  S
C3874      C3875   1.402       .  A
C3875      C3876   1.421       .  A
C3875      C3882   1.509       .  S
C3876      C3877   1.426       .  A
C3876      H3881   1.083       .  S
C3877      C3878   1.406       .  A
C3878      C3879   1.505       .  S
C3879      H3883   1.106       .  S
C3879      H3884   1.102       .  S
C3879      H3885   1.109       .  S
C3882      H3886   1.102       .  S
C3882      H3887   1.103       .  S
C3882      H3888   1.110       .  S
C3889      C3890   1.381       .  A
C3889      C3894   1.375       .  A
C3889      H3896   1.047       .  S
C3890      C3891   1.423       .  A
C3891      C3892   1.421       .  A
C3891      C3898   1.501       .  S
C3892      C3893   1.408       .  A
C3892      H3897   1.083       .  S
C3893      C3894   1.417       .  A
C3894      C3895   1.507       .  S
C3895      H3899   1.111       .  S
C3895      H3900   1.110       .  S
C3895      H3901   1.096       .  S
C3898      H3902   1.110       .  S
C3898      H3903   1.109       .  S
C3898      H3904   1.108       .  S
C3905      C3906   1.417       .  A
C3905      C3910   1.408       .  A
C3905      H3912   1.085       .  S
C3906      C3907   1.419       .  A
C3907      C3908   1.394       .  A
C3907      C3914   1.502       .  S
C3908      C3909   1.396       .  A
C3908      H3913   1.073       .  S
C3909      C3910   1.408       .  A
C3910      C3911   1.503       .  S
C3911      H3915   1.110       .  S
C3911      H3916   1.110       .  S
C3911      H3917   1.109       .  S
C3914      H3918   1.101       .  S
C3914      H3919   1.097       .  S
C3914      H3920   1.104       .  S
C3921      C3922   1.404       .  A
C3921      C3926   1.417       .  A
C3921      H3928   1.084       .  S
C3922      C3923   1.423       .  A
C3923      C3924   1.397       .  A
C3923      C3930   1.508       .  S
C3924      C3925   1.397       .  A
C3924      H3929   1.076       .  S
C3925      C3926   1.424       .  A
C3926      C3927   1.502       .  S
C3927      H3931   1.110       .  S
C3927      H3932   1.107       .  S
C3927      H3933   1.110       .  S
C3930      H3934   1.092       .  S
C3930      H3935   1.108       .  S
C3930      H3936   1.111       .  S
C3937      C3938   1.389       .  A
C3937      C3942   1.382       .  A
C3937      H3944   1.077       .  S
C3938      C3939   1.423       .  A
C3939      C3940   1.416       .  A
C3939      C3946   1.504       .  S
C3940      C3941   1.405       .  A
C3940      H3945   1.083       .  S
C3941      C3942   1.431       .  A
C3942      C3943   1.512       .  S
C3943      H3947   1.101       .  S
C3943      H3948   1.111       .  S
C3943      H3949   1.107       .  S
C3946      H3950   1.110       .  S
C3946      H3951   1.107       .  S
C3946      H3952   1.110       .  S
C3953      C3954   1.396       .  A
C3953      C3958   1.392       .  A
C3953      H3960   1.082       .  S
C3954      C3955   1.411       .  A
C3955      C3956   1.399       .  A
C3955      C3962   1.500       .  S
C3956      C3957   1.399       .  A
C3956      H3961   1.083       .  S
C3957      C3958   1.419       .  A
C3958      C3959   1.510       .  S
C3959      H3963   1.103       .  S
C3959      H3964   1.104       .  S
C3959      H3965   1.107       .  S
C3962      H3966   1.098       .  S
C3962      H3967   1.110       .  S
C3962      H3968   1.111       .  S
C3969      C3970   1.408       .  A
C3969      C3974   1.423       .  A
C3969      H3976   1.081       .  S
C3970      C3971   1.428       .  A
C3971      C3972   1.396       .  A
C3971      C3978   1.509       .  S
C3972      C3973   1.397       .  A
C3972      H3977   1.074       .  S
C3973      C3974   1.417       .  A
C3974      C3975   1.503       .  S
C3975      H3979   1.110       .  S
C3975      H3980   1.110       .  S
C3975      H3981   1.105       .  S
C3978      H3982   1.100       .  S
C3978      H3983   1.106       .  S
C3978      H3984   1.107       .  S
C3985      C3986   1.398       .  A
C3985      C3990   1.404       .  A
C3985      H3992   1.081       .  S
C3986      C3987   1.418       .  A
C3987      C3988   1.399       .  A
C3987      C3994   1.499       .  S
C3988      C3989   1.398       .  A
C3988      H3993   1.085       .  S
C3989      C3990   1.415       .  A
C3990      C3991   1.507       .  S
C3991      H3995   1.109       .  S
C3991      H3996   1.103       .  S
C3991      H3997   1.101       .  S
C3994      H3998   1.107       .  S
C3994      H3999   1.110       .  S
C3994      H4000   1.110       .  S
C4001      C4002   1.407       .  A
C4001      C4006   1.413       .  A
C4001      H4008   1.080       .  S
C4002      C4003   1.405       .  A
C4003      C4004   1.389       .  A
C4003      C4010   1.492       .  S
C4004      C4005   1.397       .  A
C4004      H4009   1.077       .  S
C4005      C4006   1.412       .  A
C4006      C4007   1.501       .  S
C4007      H4011   1.108       .  S
C4007      H4012   1.109       .  S
C4007      H4013   1.110       .  S
C4010      H4014   1.110       .  S
C4010      H4015   1.095       .  S
C4010      H4016   1.107       .  S
C4017      C4018   1.415       .  A
C4017      C4022   1.413       .  A
C4017      H4024   1.083       .  S
C4018      C4019   1.416       .  A
C4019      C4020   1.376       .  A
C4019      C4026   1.517       .  S
C4020      C4021   1.407       .  A
C4020      H4025   1.073       .  S
C4021      C4022   1.408       .  A
C4022      C4023   1.503       .  S
C4023      H4027   1.111       .  S
C4023      H4028   1.101       .  S
C4023      H4029   1.107       .  S
C4026      H4030   1.109       .  S
C4026      H4031   1.103       .  S
C4026      H4032   1.110       .  S
C4033      C4034   1.409       .  A
C4033      C4038   1.414       .  A
C4033      H4040   1.082       .  S
C4034      C4035   1.410       .  A
C4035      C4036   1.407       .  A
C4035      C4042   1.497       .  S
C4036      C4037   1.405       .  A
C4036      H4041   1.083       .  S
C4037      C4038   1.413       .  A
C4038      C4039   1.503       .  S
C4039      H4043   1.110       .  S
C4039      H4044   1.105       .  S
C4039      H4045   1.106       .  S
C4042      H4046   1.079       .  S
C4042      H4047   1.105       .  S
C4042      H4048   1.110       .  S
C4049      C4050   1.405       .  A
C4049      C4054   1.404       .  A
C4049      H4056   1.075       .  S
C4050      C4051   1.408       .  A
C4051      C4052   1.407       .  A
C4051      C4058   1.506       .  S
C4052      C4053   1.413       .  A
C4052      H4057   1.084       .  S
C4053      C4054   1.404       .  A
C4054      C4055   1.508       .  S
C4055      H4059   1.108       .  S
C4055      H4060   1.110       .  S
C4055      H4061   1.108       .  S
C4058      H4062   1.107       .  S
C4058      H4063   1.106       .  S
C4058      H4064   1.110       .  S
C4065      C4066   1.380       .  A
C4065      C4070   1.392       .  A
C4065      H4072   1.064       .  S
C4066      C4067   1.419       .  A
C4067      C4068   1.416       .  A
C4067      C4074   1.497       .  S
C4068      C4069   1.409       .  A
C4068      H4073   1.084       .  S
C4069      C4070   1.429       .  A
C4070      C4071   1.499       .  S
C4071      H4075   1.108       .  S
C4071      H4076   1.108       .  S
C4071      H4077   1.106       .  S
C4074      H4078   1.109       .  S
C4074      H4079   1.106       .  S
C4074      H4080   1.108       .  S
C4081      C4082   1.408       .  A
C4081      C4086   1.390       .  A
C4081      H4088   1.084       .  S
C4082      C4083   1.405       .  A
C4083      C4084   1.419       .  A
C4083      C4090   1.506       .  S
C4084      C4085   1.419       .  A
C4084      H4089   1.083       .  S
C4085      C4086   1.413       .  A
C4086      C4087   1.506       .  S
C4087      H4091   1.110       .  S
C4087      H4092   1.106       .  S
C4087      H4093   1.106       .  S
C4090      H4094   1.103       .  S
C4090      H4095   1.100       .  S
C4090      H4096   1.110       .  S
C4097      C4098   1.406       .  A
C4097      C4102   1.408       .  A
C4097      H4104   1.081       .  S
C4098      C4099   1.412       .  A
C4099      C4100   1.396       .  A
C4099      C4106   1.493       .  S
C4100      C4101   1.399       .  A
C4100      H4105   1.084       .  S
C4101      C4102   1.409       .  A
C4102      C4103   1.503       .  S
C4103      H4107   1.109       .  S
C4103      H4108   1.107       .  S
C4103      H4109   1.107       .  S
C4106      H4110   1.105       .  S
C4106      H4111   1.110       .  S
C4106      H4112   1.111       .  S
C4113      C4114   1.404       .  A
C4113      C4118   1.417       .  A
C4113      H4120   1.083       .  S
C4114      C4115   1.429       .  A
C4115      C4116   1.387       .  A
C4115      C4122   1.513       .  S
C4116      C4117   1.393       .  A
C4116      H4121   1.070       .  S
C4117      C4118   1.424       .  A
C4118      C4119   1.501       .  S
C4119      H4123   1.110       .  S
C4119      H4124   1.107       .  S
C4119      H4125   1.110       .  S
C4122      H4126   1.104       .  S
C4122      H4127   1.110       .  S
C4122      H4128   1.109       .  S
C4129      C4130   1.399       .  A
C4129      C4134   1.400       .  A
C4129      H4136   1.074       .  S
C4130      C4131   1.411       .  A
C4131      C4132   1.412       .  A
C4131      C4138   1.502       .  S
C4132      C4133   1.412       .  A
C4132      H4137   1.083       .  S
C4133      C4134   1.416       .  A
C4134      C4135   1.504       .  S
C4135      H4139   1.107       .  S
C4135      H4140   1.111       .  S
C4135      H4141   1.105       .  S
C4138      H4142   1.109       .  S
C4138      H4143   1.103       .  S
C4138      H4144   1.110       .  S
C4145      C4146   1.418       .  A
C4145      C4150   1.415       .  A
C4145      H4152   1.084       .  S
C4146      C4147   1.417       .  A
C4147      C4148   1.411       .  A
C4147      C4154   1.505       .  S
C4148      C4149   1.407       .  A
C4148      H4153   1.081       .  S
C4149      C4150   1.409       .  A
C4150      C4151   1.506       .  S
C4151      H4155   1.110       .  S
C4151      H4156   1.110       .  S
C4151      H4157   1.107       .  S
C4154      H4158   1.089       .  S
C4154      H4159   1.109       .  S
C4154      H4160   1.108       .  S
C4161      C4162   1.410       .  A
C4161      C4166   1.399       .  A
C4161      H4168   1.081       .  S
C4162      C4163   1.406       .  A
C4163      C4164   1.407       .  A
C4163      C4170   1.503       .  S
C4164      C4165   1.407       .  A
C4164      H4169   1.084       .  S
C4165      C4166   1.406       .  A
C4166      C4167   1.510       .  S
C4167      H4171   1.110       .  S
C4167      H4172   1.106       .  S
C4167      H4173   1.100       .  S
C4170      H4174   1.109       .  S
C4170      H4175   1.108       .  S
C4170      H4176   1.105       .  S
C4177      C4178   1.404       .  A
C4177      C4182   1.397       .  A
C4177      H4184   1.081       .  S
C4178      C4179   1.412       .  A
C4179      C4180   1.406       .  A
C4179      C4186   1.504       .  S
C4180      C4181   1.407       .  A
C4180      H4185   1.083       .  S
C4181      C4182   1.402       .  A
C4182      C4183   1.506       .  S
C4183      H4187   1.109       .  S
C4183      H4188   1.103       .  S
C4183      H4189   1.101       .  S
C4186      H4190   1.107       .  S
C4186      H4191   1.109       .  S
C4186      H4192   1.111       .  S
C4193      C4194   1.405       .  A
C4193      C4198   1.408       .  A
C4193      H4200   1.083       .  S
C4194      C4195   1.437       .  A
C4195      C4196   1.395       .  A
C4195      C4202   1.509       .  S
C4196      C4197   1.385       .  A
C4196      H4201   1.083       .  S
C4197      C4198   1.415       .  A
C4198      C4199   1.507       .  S
C4199      H4203   1.111       .  S
C4199      H4204   1.110       .  S
C4199      H4205   1.106       .  S
C4202      H4206   1.108       .  S
C4202      H4207   1.107       .  S
C4202      H4208   1.111       .  S
C4209      C4210   1.393       .  A
C4209      C4214   1.396       .  A
C4209      H4216   1.084       .  S
C4210      C4211   1.412       .  A
C4211      C4212   1.410       .  A
C4211      C4218   1.505       .  S
C4212      C4213   1.407       .  A
C4212      H4217   1.084       .  S
C4213      C4214   1.420       .  A
C4214      C4215   1.493       .  S
C4215      H4219   1.110       .  S
C4215      H4220   1.108       .  S
C4215      H4221   1.100       .  S
C4218      H4222   1.103       .  S
C4218      H4223   1.109       .  S
C4218      H4224   1.111       .  S
C4225      C4226   1.408       .  A
C4225      C4230   1.412       .  A
C4225      H4232   1.084       .  S
C4226      C4227   1.408       .  A
C4227      C4228   1.394       .  A
C4227      C4234   1.500       .  S
C4228      C4229   1.405       .  A
C4228      H4233   1.084       .  S
C4229      C4230   1.411       .  A
C4230      C4231   1.504       .  S
C4231      H4235   1.107       .  S
C4231      H4236   1.107       .  S
C4231      H4237   1.109       .  S
C4234      H4238   1.100       .  S
C4234      H4239   1.106       .  S
C4234      H4240   1.110       .  S
C4241      C4242   1.409       .  A
C4241      C4246   1.422       .  A
C4241      H4248   1.084       .  S
C4242      C4243   1.418       .  A
C4243      C4244   1.388       .  A
C4243      C4250   1.494       .  S
C4244      C4245   1.384       .  A
C4244      H4249   1.079       .  S
C4245      C4246   1.422       .  A
C4246      C4247   1.503       .  S
C4247      H4251   1.110       .  S
C4247      H4252   1.107       .  S
C4247      H4253   1.110       .  S
C4250      H4254   1.103       .  S
C4250      H4255   1.109       .  S
C4250      H4256   1.106       .  S
C4257      C4258   1.385       .  A
C4257      C4262   1.393       .  A
C4257      H4264   1.082       .  S
C4258      C4259   1.420       .  A
C4259      C4260   1.419       .  A
C4259      C4266   1.503       .  S
C4260      C4261   1.410       .  A
C4260      H4265   1.083       .  S
C4261      C4262   1.416       .  A
C4262      C4263   1.474       .  S
C4263      H4267   1.108       .  S
C4263      H4268   1.094       .  S
C4263      H4269   1.108       .  S
C4266      H4270   1.110       .  S
C4266      H4271   1.110       .  S
C4266      H4272   1.109       .  S
C4273      C4274   1.409       .  A
C4273      C4278   1.418       .  A
C4273      H4280   1.082       .  S
C4274      C4275   1.412       .  A
C4275      C4276   1.408       .  A
C4275      C4282   1.488       .  S
C4276      C4277   1.400       .  A
C4276      H4281   1.084       .  S
C4277      C4278   1.411       .  A
C4278      C4279   1.507       .  S
C4279      H4283   1.107       .  S
C4279      H4284   1.105       .  S
C4279      H4285   1.110       .  S
C4282      H4286   1.107       .  S
C4282      H4287   1.098       .  S
C4282      H4288   1.110       .  S
C4289      C4290   1.402       .  A
C4289      C4294   1.387       .  A
C4289      H4296   1.083       .  S
C4290      C4291   1.416       .  A
C4291      C4292   1.384       .  A
C4291      C4298   1.495       .  S
C4292      C4293   1.387       .  A
C4292      H4297   1.086       .  S
C4293      C4294   1.416       .  A
C4294      C4295   1.516       .  S
C4295      H4299   1.104       .  S
C4295      H4300   1.096       .  S
C4295      H4301   1.107       .  S
C4298      H4302   1.108       .  S
C4298      H4303   1.107       .  S
C4298      H4304   1.109       .  S
C4305      C4306   1.402       .  A
C4305      C4310   1.403       .  A
C4305      H4312   1.082       .  S
C4306      C4307   1.410       .  A
C4307      C4308   1.409       .  A
C4307      C4314   1.506       .  S
C4308      C4309   1.411       .  A
C4308      H4313   1.083       .  S
C4309      C4310   1.417       .  A
C4310      C4311   1.503       .  S
C4311      H4315   1.108       .  S
C4311      H4316   1.105       .  S
C4311      H4317   1.107       .  S
C4314      H4318   1.103       .  S
C4314      H4319   1.109       .  S
C4314      H4320   1.111       .  S
C4321      C4322   1.399       .  A
C4321      C4326   1.409       .  A
C4321      H4328   1.076       .  S
C4322      C4323   1.411       .  A
C4323      C4324   1.405       .  A
C4323      C4330   1.496       .  S
C4324      C4325   1.407       .  A
C4324      H4329   1.085       .  S
C4325      C4326   1.413       .  A
C4326      C4327   1.502       .  S
C4327      H4331   1.109       .  S
C4327      H4332   1.101       .  S
C4327      H4333   1.110       .  S
C4330      H4334   1.105       .  S
C4330      H4335   1.107       .  S
C4330      H4336   1.108       .  S
C4337      C4338   1.393       .  A
C4337      C4342   1.393       .  A
C4337      H4344   1.067       .  S
C4338      C4339   1.418       .  A
C4339      C4340   1.414       .  A
C4339      C4346   1.497       .  S
C4340      C4341   1.407       .  A
C4340      H4345   1.084       .  S
C4341      C4342   1.413       .  A
C4342      C4343   1.493       .  S
C4343      H4347   1.102       .  S
C4343      H4348   1.108       .  S
C4343      H4349   1.090       .  S
C4346      H4350   1.092       .  S
C4346      H4351   1.104       .  S
C4346      H4352   1.111       .  S
C4353      C4354   1.412       .  A
C4353      C4358   1.406       .  A
C4353      H4360   1.084       .  S
C4354      C4355   1.407       .  A
C4355      C4356   1.405       .  A
C4355      C4362   1.508       .  S
C4356      C4357   1.409       .  A
C4356      H4361   1.073       .  S
C4357      C4358   1.411       .  A
C4358      C4359   1.509       .  S
C4359      H4363   1.111       .  S
C4359      H4364   1.100       .  S
C4359      H4365   1.103       .  S
C4362      H4366   1.108       .  S
C4362      H4367   1.108       .  S
C4362      H4368   1.110       .  S
