geometry optimzed in LAMMPS
_audit_creation_date              2020-11-30 
_audit_creation_method            'lammps2cif' 
_symmetry_space_group_name_H-M    'P1' 
_symmetry_Int_Tables_number       1 
_symmetry_cell_setting            triclinic 
loop_ 
_symmetry_equiv_pos_as_xyz 
  x,y,z 
_cell_length_a                    31.5137653243184 
_cell_length_b                    31.92491351537326 
_cell_length_c                    31.688196341028714 
_cell_angle_alpha                 89.9984329918566 
_cell_angle_beta                  89.9997890838727 
_cell_angle_gamma                 89.98850501905797 
loop_ 
_atom_site_label 
_atom_site_type_symbol 
_atom_site_fract_x 
_atom_site_fract_y 
_atom_site_fract_z 
_atom_site_charge 
C1          C  0.31000611  0.27518236  0.50021401     0.04610
C2          C  0.28013634  0.30572436  0.50041632     0.04610
C3          C  0.30301551  0.46287502  0.31430746     0.04610
C4          C  0.27210924  0.46271474  0.34416707     0.04610
C5          C  0.46423389  0.27602555  0.34209287     0.04610
C6          C  0.46422605  0.30726956  0.31312092     0.04610
C7          C  0.15487251  0.12546235  0.00004351     0.04610
C8          C  0.12460635  0.15619779  0.00044157     0.04610
C9          C  0.96521277  0.12039164  0.19217184     0.04610
C10         C  0.96523387  0.15040257  0.16150194     0.04610
C11         C  0.12611570  0.96386370  0.19115832     0.04610
C12         C  0.15582057  0.96375982  0.15970813     0.04610
C13         C  0.64870399  0.30589183  0.49978773     0.04610
C14         C  0.61905859  0.27514629  0.49961668     0.04610
C15         C  0.27992480  0.61954971  0.50022783     0.04610
C16         C  0.30986533  0.64998576  0.50005861     0.04610
C17         C  0.46407698  0.61821575  0.31307027     0.04610
C18         C  0.46412286  0.64936778  0.34213329     0.04610
C19         C  0.65654379  0.46281886  0.34392167     0.04610
C20         C  0.62545238  0.46297462  0.31427195     0.04610
C21         C  0.46476679  0.27548763  0.65752849     0.04610
C22         C  0.46478368  0.30629346  0.68693204     0.04610
C23         C  0.30870775  0.46293146  0.68590358     0.04610
C24         C  0.27892843  0.46290021  0.65508193     0.04610
C25         C  0.15466574  0.80130741  0.00021989     0.04610
C26         C  0.12451074  0.77046983  0.00061527     0.04610
C27         C  0.80458672  0.15607595  0.00058494     0.04610
C28         C  0.77420252  0.12543875  0.00018980     0.04610
C29         C  0.96492586  0.15507150  0.83838959     0.04610
C30         C  0.96490639  0.12421955  0.80840467     0.04610
C31         C  0.15544189  0.96352784  0.84063321     0.04610
C32         C  0.12528146  0.96363760  0.80957371     0.04610
C33         C  0.96551267  0.80662871  0.19208916     0.04610
C34         C  0.96545129  0.77643539  0.16161917     0.04610
C35         C  0.80339998  0.96373421  0.19083923     0.04610
C36         C  0.77339012  0.96362558  0.15965515     0.04610
N37         N  0.31659490  0.51058157  0.95038222    -0.02070
N38         N  0.33363326  0.50744443  0.91244041    -0.54190
N39         N  0.28628867  0.53862339  0.05026172    -0.01750
N40         N  0.28145737  0.55454503  0.08843767    -0.56320
N41         N  0.31687044  0.51071865  0.05002849    -0.01350
N42         N  0.33360358  0.50729239  0.08807888    -0.54170
N43         N  0.28587590  0.53831325  0.95010502    -0.01030
N44         N  0.28125898  0.55447789  0.91199096    -0.56670
C45         C  0.31143765  0.53508555  0.88907108     1.00110
C46         C  0.31134877  0.53488070  0.11145204     0.99880
N47         N  0.15586447  0.51730932  0.04768196    -0.02260
N48         N  0.12257118  0.53841871  0.06240933    -0.54770
N49         N  0.18894995  0.54137696  0.95343777    -0.00370
N50         N  0.17915408  0.57778826  0.93691306    -0.56020
N51         N  0.15538150  0.51657789  0.95527357    -0.02280
N52         N  0.12173578  0.53761672  0.94149654    -0.55030
N53         N  0.18931891  0.54234641  0.04807237    -0.00020
N54         N  0.17987563  0.57894764  0.06447667    -0.56110
Mn55       Mn  0.23862707  0.54037543  0.00042766     1.18440
C56         C  0.13861267  0.57644617  0.07353482     1.02190
C57         C  0.13758855  0.57534840  0.92946242     1.02850
N58         N  0.31689507  0.41575553  0.05002267    -0.02300
N59         N  0.33375089  0.41906564  0.08803064    -0.58610
N60         N  0.28586791  0.38819006  0.95009275    -0.01110
N61         N  0.28133544  0.37192670  0.91200918    -0.59290
N62         N  0.31660168  0.41589241  0.95036717    -0.01810
N63         N  0.33373567  0.41891405  0.91245419    -0.58880
N64         N  0.28629341  0.38788759  0.05027375    -0.00710
N65         N  0.28156528  0.37187063  0.08842426    -0.59570
Mn66       Mn  0.31894107  0.46324235  0.00023450     1.10660
C67         C  0.31154767  0.39143895  0.11140211     1.03410
C68         C  0.31158417  0.39122715  0.88910024     1.03490
N69         N  0.15535664  0.41006418  0.95528703    -0.01820
N70         N  0.12169949  0.38904333  0.94152817    -0.57190
N71         N  0.18930005  0.38429317  0.04809406    -0.01140
N72         N  0.17983200  0.34768285  0.06445606    -0.53920
N73         N  0.15584341  0.40934295  0.04767667    -0.02450
N74         N  0.12252829  0.38822696  0.06232697    -0.56760
N75         N  0.18891640  0.38523868  0.95345524    -0.01430
N76         N  0.17910228  0.34882841  0.93694891    -0.53940
Mn77       Mn  0.15446193  0.46332607  0.00165414     1.20190
Mn78       Mn  0.23860663  0.38619915  0.00043872     1.10090
Cl79       Cl  0.23653459  0.46328604  0.00085856    -0.81920
C80         C  0.13753571  0.35129381  0.92950803     1.00420
C81         C  0.13855320  0.35018348  0.07344165     1.00220
N82         N  0.61336662  0.41630308  0.95083004    -0.02070
N83         N  0.59603349  0.41922081  0.91299764    -0.54190
N84         N  0.64379260  0.38824876  0.05069320    -0.01750
N85         N  0.64829451  0.37202541  0.08878850    -0.56320
N86         N  0.61316541  0.41611927  0.05041968    -0.01350
N87         N  0.59609117  0.41924155  0.08834616    -0.54170
N88         N  0.64409970  0.38856778  0.95049904    -0.01030
N89         N  0.64840382  0.37217061  0.91244029    -0.56670
C90         C  0.61802999  0.39142079  0.88962083     1.00110
C91         C  0.61815566  0.39147642  0.11169589     0.99880
N92         N  0.77434938  0.40944472  0.04789598    -0.02260
N93         N  0.80770248  0.38822027  0.06233829    -0.54770
N94         N  0.74109051  0.38543234  0.95372641    -0.00370
N95         N  0.75084623  0.34897762  0.93727287    -0.56020
N96         N  0.77467296  0.41020268  0.95551296    -0.02280
N97         N  0.80830477  0.38908717  0.94179916    -0.55030
N98         N  0.74086382  0.38446129  0.04840755    -0.00020
N99         N  0.75034754  0.34779135  0.06464311    -0.56110
Mn100      Mn  0.69153483  0.38648091  0.00081022     1.18440
C101        C  0.79167290  0.35017630  0.07344327     1.02190
C102        C  0.79241558  0.35134154  0.92983164     1.02850
N103        N  0.61333129  0.51114277  0.05048570    -0.02300
N104        N  0.59637928  0.50789359  0.08845188    -0.58610
N105        N  0.64433674  0.53873976  0.95060823    -0.01110
N106        N  0.64883078  0.55501828  0.91252175    -0.59290
N107        N  0.61353226  0.51109131  0.95090064    -0.01810
N108        N  0.59634130  0.50812456  0.91301378    -0.58880
N109        N  0.64402619  0.53893073  0.05079026    -0.00710
N110        N  0.64869425  0.55496184  0.08894469    -0.59570
Mn111      Mn  0.61103309  0.46367669  0.00068303     1.10660
C112        C  0.61859029  0.53548434  0.11185488     1.03410
C113        C  0.61849996  0.53579218  0.88964833     1.03490
N114        N  0.77480699  0.51676596  0.95556746    -0.01820
N115        N  0.80848305  0.53778142  0.94182687    -0.57190
N116        N  0.74107298  0.54250577  0.04851135    -0.01140
N117        N  0.75062913  0.57912094  0.06482017    -0.53920
N118        N  0.77449973  0.51743635  0.04796784    -0.02450
N119        N  0.80789449  0.53854670  0.06246950    -0.56760
N120        N  0.74129309  0.54164023  0.95382970    -0.01430
N121        N  0.75112953  0.57807428  0.93738682    -0.53940
Mn122      Mn  0.77558096  0.46346142  0.00189395     1.20190
Mn123      Mn  0.69174591  0.54066116  0.00091482     1.10090
Cl124      Cl  0.69311096  0.46356773  0.00118009    -0.81920
C125        C  0.79268264  0.57558064  0.92989424     1.00420
C126        C  0.79194366  0.57661166  0.07364257     1.00220
C127        C  0.84864107  0.23770675  0.91327524     0.04610
C128        C  0.87818538  0.23740548  0.88204244     0.04610
C129        C  0.87664231  0.69410894  0.12322168     0.04610
C130        C  0.84719968  0.69149013  0.09187635     0.04610
N131        N  0.91874028  0.40979673  0.80617724    -0.02070
N132        N  0.90535320  0.38857237  0.83974287    -0.54190
N133        N  0.01230822  0.38479845  0.77199510    -0.01750
N134        N  0.02855271  0.34815854  0.78156941    -0.56320
N135        N  0.01144634  0.40975904  0.80531151    -0.01350
N136        N  0.02555536  0.38855351  0.83859754    -0.54170
N137        N  0.91715262  0.38486827  0.77285650    -0.01030
N138        N  0.90112471  0.34822445  0.78275618    -0.56670
C139        C  0.89373890  0.35059911  0.82411860     1.00110
C140        C  0.03684023  0.35056182  0.82275804     0.99880
N141        N  0.01376239  0.41565779  0.64511174    -0.02260
N142        N  0.05181699  0.41877399  0.62796631    -0.54770
N143        N  0.91365686  0.38797800  0.67637373    -0.00370
N144        N  0.87545135  0.37160770  0.68102542    -0.56020
N145        N  0.91374063  0.41571164  0.64582804    -0.02280
N146        N  0.87556496  0.41866364  0.62893485    -0.55030
N147        N  0.01418902  0.38789051  0.67562510    -0.00020
N148        N  0.05250649  0.37169528  0.68000230    -0.56110
Mn149      Mn  0.96429009  0.38621161  0.72322328     1.18440
C150        C  0.07538598  0.39108596  0.64989661     1.02190
C151        C  0.85228624  0.39088363  0.65104149     1.02850
N152        N  0.01146988  0.51705694  0.80515496    -0.02300
N153        N  0.02564818  0.53830861  0.83837756    -0.58610
N154        N  0.91716631  0.54191894  0.77262433    -0.01110
N155        N  0.90116625  0.57861008  0.78242759    -0.59290
N156        N  0.91874138  0.51707759  0.80601349    -0.01810
N157        N  0.90535431  0.53839791  0.83951873    -0.58880
N158        N  0.01229755  0.54195034  0.77178655    -0.00710
N159        N  0.02855494  0.57860663  0.78127072    -0.59570
Mn160      Mn  0.96511629  0.46342339  0.80675287     1.10660
C161        C  0.03692179  0.57626565  0.82245338     1.03410
C162        C  0.89376450  0.57634366  0.82379711     1.03490
N163        N  0.91378765  0.51052068  0.64569730    -0.01820
N164        N  0.87560993  0.50751619  0.62883299    -0.57190
N165        N  0.01416516  0.53838196  0.67541007    -0.01140
N166        N  0.05250292  0.55449116  0.67980640    -0.53920
N167        N  0.01374128  0.51049460  0.64500412    -0.02450
N168        N  0.05181975  0.50721117  0.62795673    -0.56760
N169        N  0.91371550  0.53837521  0.67613308    -0.01430
N170        N  0.87551896  0.55477771  0.68073466    -0.53940
Mn171      Mn  0.96374315  0.46309417  0.64323258     1.20190
Mn172      Mn  0.96429849  0.54033369  0.72298966     1.10090
Cl173      Cl  0.96435427  0.46327168  0.72516805    -0.81920
C174        C  0.85235320  0.53539209  0.65084039     1.00420
C175        C  0.07538953  0.53491757  0.64983422     1.00220
C176        C  0.08121775  0.23781631  0.91276513     0.04610
C177        C  0.05208182  0.23749619  0.88117089     0.04610
C178        C  0.84896547  0.68913315  0.91329577     0.04610
C179        C  0.87834200  0.68950132  0.88191209     0.04610
C180        C  0.08134780  0.68887420  0.91275508     0.04610
C181        C  0.05232141  0.68925993  0.88106307     0.04610
C182        C  0.87668369  0.23275118  0.12254531     0.04610
C183        C  0.84698190  0.23526152  0.09143484     0.04610
N184        N  0.91049732  0.50857087  0.30957796    -0.02070
N185        N  0.88984560  0.52397926  0.34269726    -0.54190
N186        N  0.88498315  0.41572406  0.27570144    -0.01750
N187        N  0.84835152  0.39841593  0.28490270    -0.56320
N188        N  0.91035191  0.41622955  0.30892450    -0.01350
N189        N  0.88960168  0.40045439  0.34181782    -0.54170
N190        N  0.88515574  0.50970510  0.27635567    -0.01030
N191        N  0.84861705  0.52706957  0.28580103    -0.56670
C192        C  0.85170812  0.53614405  0.32680895     1.00110
C193        C  0.85138233  0.38872016  0.32577290     0.99880
N194        N  0.91780011  0.41418358  0.14881720    -0.02260
N195        N  0.92176359  0.37652831  0.13206202    -0.54770
N196        N  0.88961791  0.51325105  0.17988857    -0.00370
N197        N  0.87401694  0.55136625  0.18492267    -0.56020
N198        N  0.91784863  0.51288097  0.14942603    -0.02280
N199        N  0.92173322  0.55066339  0.13295464    -0.55030
N200        N  0.88952589  0.41354012  0.17923832    -0.00020
N201        N  0.87399512  0.37537055  0.18395956    -0.56110
Mn202      Mn  0.88691581  0.46307292  0.22681522     1.18440
C203        C  0.89425626  0.35287171  0.15416218     1.02190
C204        C  0.89421173  0.57411660  0.15526568     1.02850
N205        N  0.01830085  0.41625372  0.30986045    -0.02300
N206        N  0.03871842  0.40070215  0.34307616    -0.58610
N207        N  0.04389446  0.50971210  0.27760190    -0.01110
N208        N  0.08032346  0.52697392  0.28753435    -0.59290
N209        N  0.01814983  0.50848855  0.31050622    -0.01810
N210        N  0.03847392  0.52362138  0.34395370    -0.58880
N211        N  0.04406982  0.41564074  0.27695292    -0.00710
N212        N  0.08058363  0.39837507  0.28662766    -0.59570
Mn213      Mn  0.96430871  0.46234434  0.31080868     1.10660
C214        C  0.07712930  0.38892151  0.32749726     1.03410
C215        C  0.07680979  0.53578308  0.32854337     1.03490
N216        N  0.01386258  0.51285399  0.15026414    -0.01820
N217        N  0.01040057  0.55063804  0.13370327    -0.57190
N218        N  0.04156366  0.41352213  0.18061992    -0.01140
N219        N  0.05702729  0.37536671  0.18569608    -0.53920
N220        N  0.01387919  0.41413761  0.14967749    -0.02450
N221        N  0.01026022  0.37646090  0.13290191    -0.56760
N222        N  0.04149882  0.51317077  0.18124837    -0.01430
N223        N  0.05711083  0.55123483  0.18657175    -0.53940
Mn224      Mn  0.96585528  0.46352028  0.14723064     1.20190
Mn225      Mn  0.04312448  0.46303139  0.22816802     1.10090
Cl226      Cl  0.96503380  0.46297029  0.22887120    -0.81920
C227        C  0.03756156  0.57402208  0.15652059     1.00420
C228        C  0.03735931  0.35283491  0.15554964     1.00220
N229        N  0.41630312  0.31751384  0.95044289    -0.02070
N230        N  0.41952952  0.33412683  0.91241862    -0.54190
N231        N  0.38815724  0.28747984  0.05043168    -0.01750
N232        N  0.37170049  0.28315148  0.08853661    -0.56320
N233        N  0.41624956  0.31780185  0.05003790    -0.01350
N234        N  0.41932846  0.33485093  0.08788204    -0.54170
N235        N  0.38810841  0.28727974  0.95031263    -0.01030
N236        N  0.37174276  0.28256720  0.91223097    -0.56670
C237        C  0.39146477  0.31217400  0.88918009     1.00110
C238        C  0.39127371  0.31308945  0.11132282     0.99880
N239        N  0.41059912  0.15875999  0.04652351    -0.02260
N240        N  0.38959141  0.12553841  0.06069944    -0.54770
N241        N  0.38499737  0.19161894  0.95307765    -0.00370
N242        N  0.34809164  0.18183999  0.93663025    -0.56020
N243        N  0.41052264  0.15874262  0.95406958    -0.02280
N244        N  0.38952027  0.12556117  0.93974581    -0.55030
N245        N  0.38513687  0.19167460  0.04773708    -0.00020
N246        N  0.34824533  0.18185598  0.06417675    -0.56110
Mn247      Mn  0.38633413  0.24050251  0.00041416     1.18440
C248        C  0.35114534  0.14096356  0.07231341     1.02190
C249        C  0.35102090  0.14099665  0.92825355     1.02850
N250        N  0.51227566  0.31786932  0.05011968    -0.02300
N251        N  0.50910725  0.33495527  0.08793793    -0.58610
N252        N  0.54071217  0.28738760  0.95050583    -0.01110
N253        N  0.55717172  0.28269707  0.91246476    -0.59290
N254        N  0.51243611  0.31756286  0.95056398    -0.01810
N255        N  0.50924663  0.33415270  0.91252819    -0.58880
N256        N  0.54044591  0.28760484  0.05057883    -0.00710
N257        N  0.55686981  0.28335504  0.08870292    -0.59570
Mn258      Mn  0.46431310  0.31987493  0.00025667     1.10660
C259        C  0.53719330  0.31327795  0.11142671     1.03410
C260        C  0.53741967  0.31224925  0.88936564     1.03490
N261        N  0.51863006  0.15881890  0.95415744    -0.01820
N262        N  0.53966641  0.12567531  0.93977234    -0.57190
N263        N  0.54379661  0.19176129  0.04790981    -0.01140
N264        N  0.58068940  0.18197195  0.06438501    -0.53920
N265        N  0.51839679  0.15881164  0.04663071    -0.02450
N266        N  0.53944393  0.12560652  0.06081328    -0.56760
N267        N  0.54413024  0.19170641  0.95326824    -0.01430
N268        N  0.58107209  0.18197020  0.93685702    -0.53940
Mn269      Mn  0.46453660  0.15771357  0.00030181     1.20190
Mn270      Mn  0.54254018  0.24061066  0.00059490     1.10090
Cl271      Cl  0.46443624  0.23861972  0.00035433    -0.81920
C272        C  0.57817249  0.14114425  0.92836421     1.00420
C273        C  0.57785124  0.14106570  0.07249150     1.00220
N274        N  0.41627906  0.91283614  0.64711034    -0.02070
N275        N  0.41956842  0.87504758  0.63045052    -0.54190
N276        N  0.38816243  0.01218576  0.67746338    -0.01750
N277        N  0.37212694  0.05012974  0.68234840    -0.56320
N278        N  0.41623405  0.01189316  0.64686370    -0.01350
N279        N  0.41965348  0.04966937  0.63019872    -0.54170
N280        N  0.38821544  0.91266063  0.67771457    -0.01030
N281        N  0.37202942  0.87478639  0.68260734    -0.56670
C282        C  0.39171357  0.85188434  0.65274799     1.00110
C283        C  0.39189886  0.07295476  0.65249725     0.99880
N284        N  0.41072924  0.00880659  0.80684216    -0.02260
N285        N  0.38988015  0.02316044  0.84030094    -0.54770
N286        N  0.38521821  0.91570838  0.77412045    -0.00370
N287        N  0.34830823  0.89953338  0.78418480    -0.56020
N288        N  0.41075920  0.91700458  0.80719768    -0.02280
N289        N  0.38979184  0.90316898  0.84080085    -0.55030
N290        N  0.38510797  0.00969412  0.77381867    -0.00020
N291        N  0.34823832  0.02605897  0.78374476    -0.56110
Mn292      Mn  0.38638937  0.96254484  0.72481804     1.18440
C293        C  0.35134195  0.03452355  0.82485157     1.02190
C294        C  0.35127784  0.89166875  0.82541911     1.02850
N295        N  0.51240086  0.01189625  0.64666864    -0.02300
N296        N  0.50901032  0.04962335  0.62988005    -0.58610
N297        N  0.54061353  0.91270849  0.67743542    -0.01110
N298        N  0.55690453  0.87485766  0.68220441    -0.59290
N299        N  0.51243174  0.91287653  0.64693588    -0.01810
N300        N  0.50916339  0.87511016  0.63022654    -0.58880
N301        N  0.54059163  0.01221006  0.67716021    -0.00710
N302        N  0.55674572  0.05012113  0.68184734    -0.59570
Mn303      Mn  0.46432676  0.96236638  0.64451369     1.10660
C304        C  0.53691953  0.07290023  0.65198738     1.03410
C305        C  0.53716018  0.85196768  0.65237958     1.03490
N306        N  0.51853929  0.91700321  0.80701290    -0.01820
N307        N  0.53953790  0.90303003  0.84054250    -0.57190
N308        N  0.54404186  0.00973672  0.77357558    -0.01140
N309        N  0.58092140  0.02613002  0.78341400    -0.53920
N310        N  0.51850123  0.00884474  0.80666276    -0.02450
N311        N  0.53940392  0.02325063  0.84006172    -0.56760
N312        N  0.54402606  0.91577278  0.77389061    -0.01430
N313        N  0.58095179  0.89954699  0.78385937    -0.53940
Mn314      Mn  0.46463625  0.96291955  0.80784865     1.20190
Mn315      Mn  0.54260889  0.96259240  0.72455201     1.10090
Cl316      Cl  0.46449442  0.96260127  0.72602809    -0.81920
C317        C  0.57802594  0.89153790  0.82507580     1.00420
C318        C  0.57789607  0.03463303  0.82452522     1.00220
C319        C  0.23688089  0.84463064  0.91286533     0.04610
C320        C  0.23709192  0.87554669  0.88339723     0.04610
C321        C  0.69211882  0.08246179  0.91240140     0.04610
C322        C  0.69190296  0.05159002  0.88287981     0.04610
C323        C  0.69217918  0.87519239  0.88322471     0.04610
C324        C  0.69241007  0.84431110  0.91275249     0.04610
N325        N  0.41054681  0.76826234  0.95421360    -0.02070
N326        N  0.38950200  0.80152329  0.94009473    -0.54190
N327        N  0.38502695  0.73534430  0.04780500    -0.01750
N328        N  0.34808353  0.74524420  0.06410000    -0.56320
N329        N  0.41054014  0.76820449  0.04664104    -0.01350
N330        N  0.38950845  0.80148513  0.06068935    -0.54170
N331        N  0.38501674  0.73541144  0.95311661    -0.01030
N332        N  0.34808124  0.74527793  0.93677320    -0.56670
C333        C  0.35097421  0.78616023  0.92859567     1.00110
C334        C  0.35099047  0.78614277  0.07219354     0.99880
N335        N  0.41600903  0.60905428  0.05009723    -0.02260
N336        N  0.41892857  0.59185712  0.08788947    -0.54770
N337        N  0.38803504  0.63969188  0.95031411    -0.00370
N338        N  0.37160518  0.64427709  0.91223272    -0.56020
N339        N  0.41613176  0.60934261  0.95052140    -0.02280
N340        N  0.41922727  0.59254523  0.91256620    -0.55030
N341        N  0.38799343  0.63947460  0.05050964    -0.00020
N342        N  0.37143100  0.64369688  0.08859226    -0.56110
Mn343      Mn  0.38626145  0.68656462  0.00045457     1.18440
C344        C  0.39085353  0.61360349  0.11133495     1.02190
C345        C  0.39118148  0.61448219  0.88927186     1.02850
N346        N  0.51846978  0.76800908  0.04681953    -0.02300
N347        N  0.53959446  0.80122285  0.06087824    -0.58610
N348        N  0.54418721  0.73512102  0.95343500    -0.01110
N349        N  0.58119093  0.74485510  0.93715603    -0.59290
N350        N  0.51871911  0.76803308  0.95435898    -0.01810
N351        N  0.53984145  0.80119547  0.94013778    -0.58880
N352        N  0.54385433  0.73504419  0.04809119    -0.00710
N353        N  0.58080896  0.74482824  0.06444373    -0.59570
Mn354      Mn  0.46456774  0.76904723  0.00047755     1.10660
C355        C  0.57803740  0.78575516  0.07248610     1.03410
C356        C  0.57837175  0.78571344  0.92878353     1.03490
N357        N  0.51231810  0.60918851  0.95070505    -0.01820
N358        N  0.50919859  0.59250973  0.91270338    -0.57190
N359        N  0.54028302  0.63912610  0.05073249    -0.01140
N360        N  0.55677846  0.64321593  0.08884803    -0.53920
N361        N  0.51211279  0.60885439  0.05022188    -0.02450
N362        N  0.50901214  0.59163140  0.08798303    -0.56760
N363        N  0.54057775  0.63938637  0.95062419    -0.01430
N364        N  0.55709765  0.64397444  0.91259117    -0.53940
Mn365      Mn  0.46414127  0.60681177  0.00035930     1.20190
Mn366      Mn  0.54248516  0.68623685  0.00074762     1.10090
Cl367      Cl  0.46436767  0.68777158  0.00049529    -0.81920
C368        C  0.53739957  0.61435635  0.88952852     1.00420
C369        C  0.53714491  0.61320675  0.11150097     1.00220
C370        C  0.23728461  0.87586518  0.11673649     0.04610
C371        C  0.23708405  0.84492928  0.08732318     0.04610
C372        C  0.23706887  0.08240916  0.91248303     0.04610
C373        C  0.23731379  0.05148165  0.88304278     0.04610
C374        C  0.69183323  0.87551731  0.11709223     0.04610
C375        C  0.69201130  0.84454648  0.08769372     0.04610
N376        N  0.41072640  0.91732494  0.19314183    -0.02070
N377        N  0.38985420  0.90346063  0.15950233    -0.54190
N378        N  0.38500248  0.00997812  0.22661712    -0.01750
N379        N  0.34817281  0.02641675  0.21668703    -0.56320
N380        N  0.41066871  0.00915907  0.19363142    -0.01350
N381        N  0.38989882  0.02363137  0.16018372    -0.54170
N382        N  0.38514255  0.91596991  0.22617910    -0.01030
N383        N  0.34828464  0.89972848  0.21605449    -0.56670
C384        C  0.35134660  0.89188543  0.17482373     1.00110
C385        C  0.35135795  0.03499425  0.17561147     0.99880
N386        N  0.41592496  0.01203506  0.35354615    -0.02260
N387        N  0.41934874  0.04982355  0.37018773    -0.54770
N388        N  0.38796231  0.91279449  0.32255940    -0.00370
N389        N  0.37179993  0.87491939  0.31758610    -0.56020
N390        N  0.41598713  0.91293735  0.35319782    -0.02280
N391        N  0.41926301  0.87512116  0.36980622    -0.55030
N392        N  0.38787857  0.01233228  0.32292408    -0.00020
N393        N  0.37187749  0.05028545  0.31799625    -0.56110
Mn394      Mn  0.38619692  0.96274536  0.27552650     1.18440
C395        C  0.39163268  0.07311925  0.34784629     1.02190
C396        C  0.39144872  0.85197465  0.34743663     1.02850
N397        N  0.51831800  0.00920718  0.19385041    -0.02300
N398        N  0.53920957  0.02366988  0.16047497    -0.58610
N399        N  0.54383009  0.91607551  0.22649422    -0.01110
N400        N  0.58074135  0.89983817  0.21650643    -0.59290
N401        N  0.51834380  0.91734613  0.19337903    -0.01810
N402        N  0.53931090  0.90338485  0.15983440    -0.58880
N403        N  0.54385341  0.01004855  0.22693766    -0.00710
N404        N  0.58072837  0.02646408  0.21712643    -0.59570
Mn405      Mn  0.46451310  0.96326969  0.19257849     1.10660
C406        C  0.57769497  0.03503270  0.17602914     1.03410
C407        C  0.57778768  0.89186233  0.17528610     1.03490
N408        N  0.51213787  0.91299657  0.35337774    -0.01820
N409        N  0.50870095  0.87514294  0.36985278    -0.57190
N410        N  0.54031910  0.01236965  0.32329458    -0.01140
N411        N  0.55630583  0.05032893  0.31847333    -0.53920
N412        N  0.51210008  0.01204388  0.35376311    -0.02450
N413        N  0.50853882  0.04982019  0.37040097    -0.56760
N414        N  0.54033873  0.91288590  0.32289212    -0.01430
N415        N  0.55645899  0.87499564  0.31790052    -0.53940
Mn416      Mn  0.46403765  0.96249345  0.35587060     1.20190
Mn417      Mn  0.54239130  0.96282769  0.27588045     1.10090
Cl418      Cl  0.46428932  0.96283190  0.27437638    -0.81920
C419        C  0.53659541  0.85201455  0.34756614     1.00420
C420        C  0.53635435  0.07313053  0.34821864     1.00220
N421        N  0.32130791  0.91281395  0.45303431    -0.02070
N422        N  0.33780793  0.87492365  0.45632270    -0.54190
N423        N  0.29151535  0.01219223  0.42499797    -0.01750
N424        N  0.28675598  0.05013923  0.40906562    -0.56320
N425        N  0.32215380  0.01178997  0.45304496    -0.01350
N426        N  0.33898580  0.04951861  0.45655510    -0.54170
N427        N  0.29061907  0.91285170  0.42504401    -0.01030
N428        N  0.28548930  0.87503943  0.40889494    -0.56670
C429        C  0.31530069  0.85194690  0.42854590     1.00110
C430        C  0.31672423  0.07285910  0.42888024     0.99880
N431        N  0.16140081  0.00980287  0.44705841    -0.02260
N432        N  0.12801319  0.02427450  0.42599857    -0.54770
N433        N  0.19384298  0.91645234  0.42196518    -0.00370
N434        N  0.18389999  0.90025820  0.38523424    -0.56020
N435        N  0.16041642  0.91803607  0.44712558    -0.02280
N436        N  0.12668471  0.90443107  0.42604890    -0.55030
N437        N  0.19481558  0.01050433  0.42184641    -0.00020
N438        N  0.18526194  0.02693529  0.38511185    -0.56110
Mn439      Mn  0.24362490  0.96296587  0.42319717     1.18440
C440        C  0.14395310  0.03555910  0.38780767     1.02190
C441        C  0.14237248  0.89273869  0.38789546     1.02850
N442        N  0.32184543  0.01169933  0.54867817    -0.02300
N443        N  0.33857309  0.04945383  0.54508060    -0.58610
N444        N  0.29018435  0.91279065  0.57647754    -0.01110
N445        N  0.28489011  0.87490945  0.59240196    -0.59290
N446        N  0.32099629  0.91281068  0.54860802    -0.01810
N447        N  0.33740755  0.87490334  0.54519535    -0.58880
N448        N  0.29108138  0.01211708  0.57660151    -0.00710
N449        N  0.28613993  0.05011461  0.59234314    -0.59570
Mn450      Mn  0.32398458  0.96226204  0.50086603     1.10660
C451        C  0.31611703  0.07282760  0.57254834     1.03410
C452        C  0.31471886  0.85185404  0.57274784     1.03490
N453        N  0.16000759  0.91799613  0.55428182    -0.01820
N454        N  0.12612749  0.90447004  0.57520137    -0.57190
N455        N  0.19427465  0.01041476  0.57980997    -0.01140
N456        N  0.18444926  0.02663196  0.61658561    -0.53920
N457        N  0.16099917  0.00974885  0.55441261    -0.02450
N458        N  0.12745070  0.02405789  0.57535289    -0.56760
N459        N  0.19329284  0.91641516  0.57962927    -0.01430
N460        N  0.18309235  0.90034242  0.61636346    -0.53940
Mn461      Mn  0.15974586  0.96392972  0.50069185     1.20190
Mn462      Mn  0.24318438  0.96289891  0.57840541     1.10090
Cl463      Cl  0.24203541  0.96302254  0.50079303    -0.81920
C464        C  0.14155760  0.89284661  0.61349134     1.00420
C465        C  0.14312413  0.03519307  0.61370379     1.00220
N466        N  0.01394401  0.31494473  0.45318264    -0.02070
N467        N  0.05224324  0.33109534  0.45720216    -0.54190
N468        N  0.91429390  0.28416583  0.42503385    -0.01750
N469        N  0.87589184  0.27876998  0.40935423    -0.56320
N470        N  0.91435757  0.31449724  0.45298869    -0.01350
N471        N  0.87596836  0.33051893  0.45669141    -0.54170
N472        N  0.01436719  0.28462477  0.42521779    -0.01030
N473        N  0.05292940  0.27936064  0.40988139    -0.56670
C474        C  0.07590940  0.30867951  0.43001167     1.00110
C475        C  0.85263506  0.30803138  0.42928153     0.99880
N476        N  0.91854251  0.15571711  0.44684922    -0.02260
N477        N  0.90451742  0.12240938  0.42592306    -0.54770
N478        N  0.01244264  0.18915660  0.42168411    -0.00370
N479        N  0.02906555  0.17946012  0.38499656    -0.56020
N480        N  0.01153650  0.15628392  0.44704380    -0.02280
N481        N  0.02612012  0.12316599  0.42618656    -0.55030
N482        N  0.91729203  0.18858648  0.42148879    -0.00020
N483        N  0.90098756  0.17866522  0.38471841    -0.56110
Mn484      Mn  0.96457141  0.23766417  0.42306389     1.18440
C485        C  0.89294564  0.13774275  0.38761038     1.02190
C486        C  0.03766461  0.13865112  0.38792827     1.02850
N487        N  0.91390279  0.31505335  0.54852600    -0.02300
N488        N  0.87575326  0.33188495  0.54541557    -0.58610
N489        N  0.01435539  0.28516065  0.57669479    -0.01110
N490        N  0.05271105  0.28060725  0.59289547    -0.59290
N491        N  0.01401066  0.31546276  0.54873613    -0.01810
N492        N  0.05214230  0.33231589  0.54555495    -0.58880
N493        N  0.91365502  0.28473975  0.57646983    -0.00710
N494        N  0.87534685  0.28015827  0.59276946    -0.59570
Mn495      Mn  0.96404073  0.31721721  0.50081872     1.10660
C496        C  0.85228502  0.30995720  0.57326878     1.03410
C497        C  0.07570718  0.31040067  0.57334200     1.03490
N498        N  0.01132622  0.15663297  0.55430106    -0.01820
N499        N  0.02606511  0.12361409  0.57519709    -0.57190
N500        N  0.91690709  0.18900707  0.57940523    -0.01140
N501        N  0.90034835  0.17919433  0.61608009    -0.53920
N502        N  0.91835122  0.15603922  0.55416459    -0.02450
N503        N  0.90425558  0.12279245  0.57513043    -0.56760
N504        N  0.01210785  0.18956130  0.57960866    -0.01430
N505        N  0.02882585  0.17999752  0.61627571    -0.53940
Mn506      Mn  0.96494308  0.15509098  0.50061173     1.20190
Mn507      Mn  0.96422191  0.23808864  0.57830866     1.10090
Cl508      Cl  0.96442336  0.23597696  0.50070081    -0.81920
C509        C  0.03757660  0.13922459  0.61340697     1.00420
C510        C  0.89242332  0.13825268  0.61330411     1.00220
C511        C  0.87631010  0.07979308  0.27417663     0.04610
C512        C  0.84519419  0.05044308  0.27390241     0.04610
N513        N  0.60828312  0.01188300  0.45242650    -0.02070
N514        N  0.59128702  0.04956105  0.45577921    -0.54190
N515        N  0.63967080  0.91284038  0.42440081    -0.01750
N516        N  0.64454311  0.87507337  0.40804091    -0.56320
N517        N  0.60899599  0.91287272  0.45237980    -0.01350
N518        N  0.59222176  0.87508838  0.45547577    -0.54170
N519        N  0.63890932  0.01226776  0.42439385    -0.01030
N520        N  0.64352577  0.05016726  0.40828878    -0.56670
C521        C  0.61344154  0.07286938  0.42799200     1.00110
C522        C  0.61454973  0.85208628  0.42755936     0.99880
N523        N  0.76995723  0.91787420  0.44671861    -0.02260
N524        N  0.80366812  0.90423356  0.42561702    -0.54770
N525        N  0.73563807  0.01036121  0.42149421    -0.00370
N526        N  0.74520471  0.02680432  0.38477249    -0.56020
N527        N  0.76907597  0.00957793  0.44670023    -0.02280
N528        N  0.80247309  0.02399024  0.42562040    -0.55030
N529        N  0.73651448  0.91634973  0.42154756    -0.00020
N530        N  0.74644662  0.90015763  0.38480916    -0.56110
Mn531      Mn  0.68669766  0.96291663  0.42271204     1.18440
C532        C  0.78796690  0.89258262  0.38745442     1.02190
C533        C  0.78652926  0.03532785  0.38744443     1.02850
N534        N  0.60919314  0.91286162  0.54787702    -0.02300
N535        N  0.59257302  0.87504840  0.54449685    -0.58610
N536        N  0.63912618  0.01214202  0.57600880    -0.01110
N537        N  0.64390193  0.05010179  0.59190483    -0.59290
N538        N  0.60848045  0.01175380  0.54797625    -0.01810
N539        N  0.59164815  0.04947362  0.54443899    -0.58880
N540        N  0.63988561  0.91274443  0.57585770    -0.00710
N541        N  0.64490718  0.87487368  0.59191174    -0.59570
Mn542      Mn  0.60649652  0.96233348  0.50018834     1.10660
C543        C  0.61500843  0.85193900  0.57221025     1.03410
C544        C  0.61391635  0.07281158  0.57208074     1.03490
N545        N  0.76935488  0.00949193  0.55422003    -0.01820
N546        N  0.80286294  0.02368912  0.57529882    -0.57190
N547        N  0.73686347  0.91626866  0.57934548    -0.01140
N548        N  0.74696004  0.90026376  0.61614727    -0.53920
N549        N  0.77024864  0.91781087  0.55409867    -0.02450
N550        N  0.80405992  0.90432250  0.57517342    -0.56760
N551        N  0.73598459  0.01020832  0.57951808    -0.01430
N552        N  0.74573465  0.02634887  0.61634913    -0.53940
Mn553      Mn  0.77075555  0.96371928  0.50040321     1.20190
Mn554      Mn  0.68692127  0.96280106  0.57794405     1.10090
Cl555      Cl  0.68879867  0.96294836  0.50032347    -0.81920
C556        C  0.78709009  0.03480603  0.61361896     1.00420
C557        C  0.78851247  0.89276619  0.61344109     1.00220
C558        C  0.87732656  0.84661836  0.72702428     0.04610
C559        C  0.84697245  0.87683548  0.72710896     0.04610
N560        N  0.91901892  0.77130881  0.55410192    -0.02070
N561        N  0.90515786  0.80461981  0.57512878    -0.54190
N562        N  0.01259235  0.73719206  0.57951739    -0.01750
N563        N  0.02926235  0.74660343  0.61625086    -0.56320
N564        N  0.01201267  0.77016610  0.55427792    -0.01350
N565        N  0.02684147  0.80307589  0.57528387    -0.54170
N566        N  0.91737221  0.73831283  0.57927798    -0.01030
N567        N  0.90091979  0.74817860  0.61599175    -0.56670
C568        C  0.89325486  0.78918079  0.61328749     1.00110
C569        C  0.03820241  0.78734413  0.61349657     0.99880
N570        N  0.01380985  0.61131046  0.54811555    -0.02260
N571        N  0.05181272  0.59414537  0.54499562    -0.54770
N572        N  0.91358879  0.64248964  0.57592114    -0.00370
N573        N  0.87534199  0.64693657  0.59242584    -0.56020
N574        N  0.91376280  0.61222185  0.54790566    -0.02280
N575        N  0.87564421  0.59531799  0.54493421    -0.55030
N576        N  0.01431050  0.64153693  0.57617662    -0.00020
N577        N  0.05265605  0.64569401  0.59251362    -0.56110
Mn578      Mn  0.96441705  0.68898893  0.57799413     1.18440
C579        C  0.07547030  0.61575796  0.57294045     1.02190
C580        C  0.85225742  0.61711761  0.57296308     1.02850
N581        N  0.01219152  0.77085043  0.44698161    -0.02300
N582        N  0.02681683  0.80397788  0.42616236    -0.58610
N583        N  0.91771238  0.73921216  0.42139355    -0.01110
N584        N  0.90152111  0.74938955  0.38464372    -0.59290
N585        N  0.91921730  0.77198035  0.44685624    -0.01810
N586        N  0.90550925  0.80548274  0.42601972    -0.58880
N587        N  0.01291360  0.73806056  0.42152334    -0.00710
N588        N  0.02949169  0.74778952  0.38482626    -0.59570
Mn589      Mn  0.96562920  0.77201070  0.50058819     1.10660
C590        C  0.03822479  0.78855710  0.38782747     1.03410
C591        C  0.89383800  0.79037127  0.38764899     1.03490
N592        N  0.91417859  0.61307985  0.45231733    -0.01820
N593        N  0.87581588  0.59695915  0.45576182    -0.57190
N594        N  0.01431351  0.64259425  0.42465565    -0.01140
N595        N  0.05289233  0.64764868  0.40927374    -0.53920
N596        N  0.01373799  0.61213266  0.45247748    -0.02450
N597        N  0.05193419  0.59569489  0.45635207    -0.56760
N598        N  0.91417431  0.64358293  0.42453831    -0.01430
N599        N  0.87581974  0.64898322  0.40870757    -0.53940
Mn600      Mn  0.96385059  0.60985222  0.50014950     1.20190
Mn601      Mn  0.96473321  0.68990443  0.42273841     1.10090
Cl602      Cl  0.96464797  0.69078053  0.50037591    -0.81920
C603        C  0.85254281  0.61953883  0.42836178     1.00420
C604        C  0.07571111  0.61805774  0.42921363     1.00220
C605        C  0.87730265  0.84821674  0.27417618     0.04610
C606        C  0.84633428  0.87771754  0.27387747     0.04610
C607        C  0.08322784  0.87649375  0.72703374     0.04610
C608        C  0.05361339  0.84559958  0.72700645     0.04610
C609        C  0.87654110  0.08080604  0.72702079     0.04610
C610        C  0.84597751  0.05080267  0.72716667     0.04610
C611        C  0.08432397  0.87732618  0.27430058     0.04610
C612        C  0.05413678  0.84706729  0.27449058     0.04610
C613        C  0.05425145  0.08047485  0.27458063     0.04610
C614        C  0.08514156  0.05089014  0.27434676     0.04610
C615        C  0.05359097  0.08141301  0.72694347     0.04610
C616        C  0.08396732  0.05123054  0.72707672     0.04610
C617        C  0.37313753  0.73070644  0.62278888     0.04610
C618        C  0.34337179  0.73072511  0.59187655     0.04610
C619        C  0.19830421  0.34059190  0.59132872     0.04610
C620        C  0.19805759  0.37154906  0.62063968     0.04610
C621        C  0.73244119  0.33988235  0.41107388     0.04610
C622        C  0.73594460  0.37071692  0.38192404     0.04610
C623        C  0.34436594  0.19428662  0.40894693     0.04610
C624        C  0.37357270  0.19443432  0.37748255     0.04610
C625        C  0.37300634  0.73069767  0.37716398     0.04610
C626        C  0.34354964  0.73072725  0.40838770     0.04610
C627        C  0.19619085  0.34029539  0.41232081     0.04610
C628        C  0.19262209  0.37122741  0.38328839     0.04610
C629        C  0.34416335  0.19412488  0.59152261     0.04610
C630        C  0.37368557  0.19420691  0.62267480     0.04610
C631        C  0.72987214  0.37125951  0.62101870     0.04610
C632        C  0.72977125  0.34054419  0.59145614     0.04610
C633        C  0.23729685  0.08231571  0.08746448     0.04610
C634        C  0.23749333  0.05160977  0.11710384     0.04610
C635        C  0.69175091  0.08237757  0.08773922     0.04610
C636        C  0.69158613  0.05168239  0.11741388     0.04610
C637        C  0.34236330  0.37188820  0.76723946     0.04610
C638        C  0.37259705  0.34164438  0.76725931     0.04610
C639        C  0.55662969  0.34171641  0.76756464     0.04610
C640        C  0.58680798  0.37200029  0.76773160     0.04610
C641        C  0.55531046  0.73077943  0.37679554     0.04610
C642        C  0.58521058  0.73090829  0.40760053     0.04610
C643        C  0.55492594  0.19440943  0.37741079     0.04610
C644        C  0.58469354  0.19423437  0.40834887     0.04610
C645        C  0.58725407  0.55455664  0.76780403     0.04610
C646        C  0.55682082  0.58459626  0.76773631     0.04610
C647        C  0.08343501  0.69124880  0.09214781     0.04610
C648        C  0.05449034  0.69389836  0.12392508     0.04610
C649        C  0.08326197  0.23540817  0.09179979     0.04610
C650        C  0.05410552  0.23283207  0.12339053     0.04610
C651        C  0.34213043  0.55407223  0.76726056     0.04610
C652        C  0.37235030  0.58431802  0.76736905     0.04610
C653        C  0.19228884  0.55371439  0.38381998     0.04610
C654        C  0.19588371  0.58520204  0.41220886     0.04610
C655        C  0.73260116  0.58609408  0.41068220     0.04610
C656        C  0.73622655  0.55455627  0.38233707     0.04610
C657        C  0.72998576  0.55493525  0.62095061     0.04610
C658        C  0.72989715  0.58567438  0.59142063     0.04610
C659        C  0.58520045  0.19405390  0.59106687     0.04610
C660        C  0.55557597  0.19412956  0.62212804     0.04610
C661        C  0.55593023  0.73082319  0.62233101     0.04610
C662        C  0.58565356  0.73087783  0.59137300     0.04610
C663        C  0.19805101  0.58497288  0.59117823     0.04610
C664        C  0.19794387  0.55414139  0.62060902     0.04610
C665        C  0.96515262  0.77180716  0.83849756     0.04610
C666        C  0.96519182  0.80267817  0.80854994     0.04610
C667        C  0.77373414  0.96341427  0.84060060     0.04610
C668        C  0.80401188  0.96352105  0.80963431     0.04610
C669        C  0.77458644  0.80125429  0.00040624     0.04610
C670        C  0.80499895  0.77063170  0.00080649     0.04610
C671        C  0.46470467  0.61918611  0.68697171     0.04610
C672        C  0.46468245  0.64973800  0.65730735     0.04610
C673        C  0.62013959  0.46320289  0.68637901     0.04610
C674        C  0.64950209  0.46314392  0.65517277     0.04610
C675        C  0.61896029  0.65022044  0.49934240     0.04610
C676        C  0.64880089  0.61967411  0.49949780     0.04610
C677        C  0.55673605  0.34333849  0.23343941     0.04610
C678        C  0.58775030  0.37286369  0.23365111     0.04610
C679        C  0.55689020  0.58266832  0.23346517     0.04490
C680        C  0.58813043  0.55336766  0.23377696     0.04610
C681        C  0.34046992  0.55305346  0.23358162     0.04610
C682        C  0.37130620  0.58277313  0.23332729     0.04610
C683        C  0.34088858  0.37294868  0.23352855     0.04610
C684        C  0.37173935  0.34323940  0.23334781     0.04610
C685        C  0.50330961  0.67022328  0.64365896    -0.09220
C686        C  0.53048777  0.69464118  0.63292145    -0.10780
C687        C  0.60535462  0.67075178  0.53781073    -0.09220
C688        C  0.59520150  0.69488155  0.56535927    -0.10780
C689        C  0.69350014  0.59562674  0.56556056    -0.09220
C690        C  0.66914278  0.60599128  0.53808552    -0.10780
C691        C  0.69369237  0.52889689  0.63037108    -0.09220
C692        C  0.66965638  0.50136821  0.64087453    -0.10780
C693        C  0.69454161  0.59504453  0.43448513    -0.09220
C694        C  0.66935204  0.60555763  0.46116601    -0.10780
C695        C  0.39836004  0.59440669  0.73119197    -0.09220
C696        C  0.42598288  0.60510748  0.70709813    -0.10780
C697        C  0.59695960  0.52873355  0.73160073    -0.09220
C698        C  0.60695313  0.50144000  0.70718420    -0.10780
C699        C  0.50341257  0.60518592  0.70718374    -0.09220
C700        C  0.53093960  0.59454461  0.73141907    -0.10780
C701        C  0.59514652  0.69482078  0.43335150    -0.09220
C702        C  0.60546842  0.67061149  0.46077053    -0.10780
C703        C  0.59659210  0.39774572  0.73150188    -0.09220
C704        C  0.60673876  0.42500834  0.70711811    -0.10780
C705        C  0.69356256  0.39727026  0.63046651    -0.09220
C706        C  0.66955302  0.42484339  0.64092734    -0.10780
C707        C  0.39871005  0.69457709  0.63323281    -0.09220
C708        C  0.42600318  0.67020363  0.64378042    -0.10780
C709        C  0.83266131  0.02737083  0.76437587    -0.09220
C710        C  0.81904920  0.00175648  0.78931117    -0.10780
C711        C  0.02987713  0.83195406  0.76400567    -0.09220
C712        C  0.00389839  0.81804281  0.78862274    -0.10780
C713        C  0.12090892  0.61577210  0.42792765    -0.09220
C714        C  0.15785204  0.60730999  0.42422600    -0.10780
C715        C  0.80697145  0.61359663  0.57617596    -0.09220
C716        C  0.76983774  0.60552168  0.58048679    -0.10780
C717        C  0.15801699  0.60449562  0.57992884    -0.09220
C718        C  0.12080264  0.61228524  0.57569040    -0.10780
C719        C  0.77052888  0.60853719  0.42233925    -0.09220
C720        C  0.80738104  0.61725690  0.42626463    -0.10780
C721        C  0.04201012  0.81261137  0.34974801    -0.09220
C722        C  0.04419871  0.82692058  0.31450330    -0.10780
C723        C  0.04200346  0.81113781  0.65170935    -0.09220
C724        C  0.04403539  0.82533862  0.68699314    -0.10780
C725        C  0.89042540  0.81454480  0.34960858    -0.09220
C726        C  0.88798656  0.82868892  0.31431344    -0.10780
C727        C  0.90078703  0.83276056  0.76414488    -0.09220
C728        C  0.92656250  0.81847869  0.78878333    -0.10780
C729        C  0.83336055  0.90000487  0.76437880    -0.09220
C730        C  0.81942598  0.92541919  0.78934711    -0.10780
C731        C  0.88767492  0.82698153  0.68688390    -0.09220
C732        C  0.88991800  0.81302301  0.65151483    -0.10780
C733        C  0.61152148  0.80732585  0.42450131    -0.09220
C734        C  0.60412356  0.77056162  0.41973787    -0.10780
C735        C  0.61111662  0.11759249  0.57433020    -0.09220
C736        C  0.60394763  0.15441829  0.57876629    -0.10780
C737        C  0.61040991  0.11766293  0.42541948    -0.09220
C738        C  0.60324992  0.15449046  0.42075808    -0.10780
C739        C  0.61217993  0.80718706  0.57485936    -0.09220
C740        C  0.60475492  0.77042427  0.57935953    -0.10780
C741        C  0.81200244  0.88968209  0.34917894    -0.09220
C742        C  0.82607568  0.88779760  0.31379395    -0.10780
C743        C  0.81128014  0.03841205  0.65185709    -0.09220
C744        C  0.82564859  0.04066542  0.68716609    -0.10780
C745        C  0.81274535  0.88956289  0.65167854    -0.09220
C746        C  0.82698183  0.88728752  0.68703244    -0.10780
C747        C  0.81050905  0.03876397  0.34915524    -0.09220
C748        C  0.82467225  0.04069466  0.31379398    -0.10780
C749        C  0.80746611  0.30996547  0.42755874    -0.09220
C750        C  0.77051564  0.31812012  0.42344943    -0.10780
C751        C  0.15831605  0.32103715  0.58007672    -0.09220
C752        C  0.12106628  0.31343534  0.57591363    -0.10780
C753        C  0.80696479  0.31315764  0.57611583    -0.09220
C754        C  0.76976120  0.32091666  0.58035518    -0.10780
C755        C  0.12110614  0.31059365  0.42881598    -0.09220
C756        C  0.15810070  0.31864970  0.42487774    -0.10780
C757        C  0.88933144  0.11369267  0.34951550    -0.09220
C758        C  0.88687882  0.09949160  0.31424891    -0.10780
C759        C  0.04137944  0.11536291  0.65155017    -0.09220
C760        C  0.04357792  0.10130202  0.68686833    -0.10780
C761        C  0.88682911  0.10044616  0.68687642    -0.09220
C762        C  0.88902616  0.11439329  0.65150400    -0.10780
C763        C  0.04156099  0.11465833  0.34983784    -0.09220
C764        C  0.04395696  0.10040739  0.31459361    -0.10780
C765        C  0.32437370  0.77027804  0.57975073    -0.09220
C766        C  0.31719479  0.80708232  0.57523824    -0.10780
C767        C  0.31943912  0.11766417  0.42657215    -0.09220
C768        C  0.32623066  0.15453149  0.42181580    -0.10780
C769        C  0.31867113  0.11761861  0.57460409    -0.09220
C770        C  0.32560226  0.15447496  0.57906424    -0.10780
C771        C  0.31790578  0.80716864  0.42578400    -0.09220
C772        C  0.32494603  0.77035956  0.42095815    -0.10780
C773        C  0.10570058  0.04109353  0.31421462    -0.09220
C774        C  0.11993778  0.03909416  0.34954444    -0.10780
C775        C  0.10301851  0.88724576  0.68697165    -0.09220
C776        C  0.11721917  0.88961970  0.65162674    -0.10780
C777        C  0.11882150  0.03885501  0.65185207    -0.09220
C778        C  0.10436800  0.04110566  0.68711994    -0.10780
C779        C  0.10432921  0.88776937  0.31423874    -0.09220
C780        C  0.11832917  0.88980600  0.34963838    -0.10780
C781        C  0.38440148  0.77033054  0.35774851    -0.09220
C782        C  0.38872960  0.80714887  0.35028362    -0.10780
C783        C  0.53872222  0.11796275  0.35098205    -0.09220
C784        C  0.54308140  0.15480477  0.35825166    -0.10780
C785        C  0.38920982  0.11797247  0.35061231    -0.09220
C786        C  0.38500891  0.15481899  0.35803191    -0.10780
C787        C  0.53918385  0.80719522  0.35024155    -0.09220
C788        C  0.54358417  0.77036682  0.35754151    -0.10780
C789        C  0.61591801  0.03896964  0.15176984    -0.09220
C790        C  0.65132277  0.04141688  0.13736092    -0.10780
C791        C  0.31320938  0.03885446  0.15126223    -0.09220
C792        C  0.27778230  0.04126514  0.13692675    -0.10780
C793        C  0.75428121  0.81687035  0.03867721    -0.09220
C794        C  0.72936364  0.83091084  0.06429800    -0.10780
C795        C  0.61605296  0.88835887  0.15104695    -0.09220
C796        C  0.65151762  0.88600571  0.13678540    -0.10780
C797        C  0.31312252  0.88860512  0.15051811    -0.09220
C798        C  0.27762669  0.88637736  0.13633205    -0.10780
C799        C  0.54029254  0.60933476  0.15652412    -0.09220
C800        C  0.54496278  0.60149405  0.19347424    -0.10780
C801        C  0.38760203  0.60976938  0.15638572    -0.09220
C802        C  0.38300825  0.60182117  0.19334126    -0.10780
C803        C  0.38374825  0.60360106  0.80722547    -0.09220
C804        C  0.38818345  0.61125389  0.84421927    -0.10780
C805        C  0.54507828  0.60377311  0.80751248    -0.09220
C806        C  0.54044899  0.61127669  0.84449679    -0.10780
C807        C  0.61644358  0.80969268  0.07600817    -0.09220
C808        C  0.65186123  0.82408390  0.07808841    -0.10780
C809        C  0.31265811  0.81017992  0.07559662    -0.09220
C810        C  0.27723026  0.82453492  0.07762090    -0.10780
C811        C  0.72931764  0.89913998  0.87006733    -0.09220
C812        C  0.75385981  0.92510910  0.85620577    -0.10780
C813        C  0.72983649  0.83064378  0.93608648    -0.09220
C814        C  0.75471197  0.81660425  0.96178189    -0.10780
C815        C  0.65221384  0.82399386  0.92260407    -0.09220
C816        C  0.61676639  0.80967162  0.92494663    -0.10780
C817        C  0.75364434  0.00162415  0.85613543    -0.09220
C818        C  0.72903965  0.02759272  0.86986569    -0.10780
C819        C  0.31259593  0.81016465  0.92498256    -0.09220
C820        C  0.27710545  0.82439783  0.92275785    -0.10780
C821        C  0.54001153  0.80717597  0.64935432    -0.09220
C822        C  0.54444939  0.77039774  0.64179194    -0.10780
C823        C  0.38940415  0.11779145  0.64964026    -0.09220
C824        C  0.38515481  0.15461347  0.64214393    -0.10780
C825        C  0.54396177  0.15451757  0.64146047    -0.09220
C826        C  0.53956120  0.11771432  0.64895189    -0.10780
C827        C  0.38895812  0.80707821  0.64980273    -0.09220
C828        C  0.38458576  0.77028880  0.64225485    -0.10780
C829        C  0.27767594  0.04096073  0.86341532    -0.09220
C830        C  0.31314095  0.03842506  0.84915875    -0.10780
C831        C  0.61632286  0.88797026  0.84930067    -0.09220
C832        C  0.65180715  0.88559861  0.86354772    -0.10780
C833        C  0.65156779  0.04118803  0.86311913    -0.09220
C834        C  0.61613167  0.03863311  0.84878266    -0.10780
C835        C  0.31299104  0.88833864  0.84966831    -0.09220
C836        C  0.27747183  0.88606202  0.86382722    -0.10780
C837        C  0.54490876  0.32253421  0.80732350    -0.09220
C838        C  0.54033488  0.31514096  0.84432755    -0.10780
C839        C  0.38362926  0.32435981  0.19337044    -0.09220
C840        C  0.38823198  0.31665323  0.15638210    -0.10780
C841        C  0.54017958  0.31688389  0.15647067    -0.09220
C842        C  0.54479081  0.32455109  0.19345633    -0.10780
C843        C  0.38863954  0.31509203  0.84412337    -0.09220
C844        C  0.38417920  0.32250164  0.80709954    -0.10780
C845        C  0.61651269  0.11714829  0.92447371    -0.09220
C846        C  0.65194229  0.10280487  0.92217440    -0.10780
C847        C  0.31282349  0.11698865  0.07573095    -0.09220
C848        C  0.27740585  0.10267009  0.07772787    -0.10780
C849        C  0.65162237  0.10275960  0.07804604    -0.09220
C850        C  0.61620705  0.11711182  0.07599730    -0.10780
C851        C  0.27723642  0.10272273  0.92227958    -0.09220
C852        C  0.31268434  0.11700709  0.92450309    -0.10780
C853        C  0.77777938  0.54534747  0.36438115    -0.09220
C854        C  0.81348732  0.54201221  0.35080184    -0.10780
C855        C  0.15100709  0.38023350  0.36529160    -0.09220
C856        C  0.11524411  0.38329316  0.35174312    -0.10780
C857        C  0.15065149  0.54427743  0.36623387    -0.09220
C858        C  0.11486083  0.54115113  0.35285493    -0.10780
C859        C  0.81309919  0.38268800  0.34970649    -0.09220
C860        C  0.77743290  0.37947268  0.36348960    -0.10780
C861        C  0.04226720  0.27131231  0.14462734    -0.09220
C862        C  0.03878852  0.30800759  0.15289428    -0.10780
C863        C  0.03934085  0.61884545  0.15389328    -0.09220
C864        C  0.04287787  0.65549634  0.14543801    -0.10780
C865        C  0.88908854  0.27133465  0.14327401    -0.09220
C866        C  0.89281798  0.30804615  0.15137168    -0.10780
C867        C  0.02928035  0.72638080  0.86718431    -0.09220
C868        C  0.00375085  0.75142104  0.85342816    -0.10780
C869        C  0.82086996  0.75050855  0.96255944    -0.09220
C870        C  0.83513406  0.72593470  0.93689607    -0.10780
C871        C  0.90113635  0.72669769  0.86782018    -0.09220
C872        C  0.92653915  0.75169657  0.85375489    -0.10780
C873        C  0.80704344  0.38772505  0.64778959    -0.09220
C874        C  0.76989339  0.38304180  0.64015546    -0.10780
C875        C  0.12065405  0.53749622  0.64669675    -0.09220
C876        C  0.15786879  0.54205185  0.63937270    -0.10780
C877        C  0.12066582  0.38832880  0.64662164    -0.09220
C878        C  0.15788866  0.38368328  0.63927691    -0.10780
C879        C  0.76997979  0.54316829  0.64008776    -0.09220
C880        C  0.80712919  0.53850268  0.64765991    -0.10780
C881        C  0.04043677  0.61448270  0.84620094    -0.09220
C882        C  0.04254874  0.64960647  0.86040274    -0.10780
C883        C  0.88855000  0.64977468  0.86160205    -0.09220
C884        C  0.89070816  0.61459129  0.84755834    -0.10780
C885        C  0.04020165  0.31236594  0.84654618    -0.09220
C886        C  0.04224183  0.27720464  0.86065696    -0.10780
C887        C  0.83342371  0.72697102  0.06630052    -0.09220
C888        C  0.81989982  0.75084799  0.03961106    -0.10780
C889        C  0.89252347  0.61894595  0.15258089    -0.09220
C890        C  0.88879472  0.65562153  0.14429799    -0.10780
C891        C  0.88851632  0.27718945  0.86191805    -0.09220
C892        C  0.89070080  0.31239904  0.84794927    -0.10780
C893        C  0.61492083  0.38865355  0.15677638    -0.09220
C894        C  0.60725458  0.38428850  0.19380249    -0.10780
C895        C  0.61555185  0.53804802  0.15695183    -0.09220
C896        C  0.60787817  0.54218572  0.19399475    -0.10780
C897        C  0.61492287  0.53887005  0.84458997    -0.09220
C898        C  0.60692148  0.54324934  0.80762513    -0.10780
C899        C  0.61421394  0.38814287  0.84457905    -0.09220
C900        C  0.60621360  0.38355382  0.80762938    -0.10780
C901        C  0.82884408  0.27634934  0.08155818    -0.09220
C902        C  0.81551198  0.31187546  0.07836642    -0.10780
C903        C  0.83006024  0.64904231  0.92437837    -0.09220
C904        C  0.81655673  0.61370096  0.92674516    -0.10780
C905        C  0.81585787  0.61484574  0.07868890    -0.09220
C906        C  0.82918006  0.65036500  0.08196232    -0.10780
C907        C  0.81619320  0.31314431  0.92670808    -0.09220
C908        C  0.82967148  0.27778405  0.92435010    -0.10780
C909        C  0.32292184  0.38356397  0.80706237    -0.09220
C910        C  0.31508278  0.38814240  0.84403637    -0.10780
C911        C  0.31398911  0.53720016  0.15658307    -0.09220
C912        C  0.32120852  0.54143189  0.19370216    -0.10780
C913        C  0.31437635  0.38894711  0.15652159    -0.09220
C914        C  0.32168012  0.38461407  0.19361886    -0.10780
C915        C  0.32258773  0.54245450  0.80702192    -0.09220
C916        C  0.31478133  0.53799037  0.84400377    -0.10780
C917        C  0.10015888  0.27785050  0.92394578    -0.09220
C918        C  0.11368910  0.31317152  0.92634953    -0.10780
C919        C  0.11473846  0.61466289  0.07873624    -0.09220
C920        C  0.10141895  0.65016412  0.08209511    -0.10780
C921        C  0.10132819  0.27646568  0.08179010    -0.09220
C922        C  0.11467412  0.31196076  0.07851203    -0.10780
C923        C  0.11375546  0.61348334  0.92630432    -0.09220
C924        C  0.10024535  0.64881523  0.92391703    -0.10780
C925        C  0.75335300  0.00180931  0.14409339    -0.09220
C926        C  0.72872921  0.02773929  0.13038524    -0.10780
C927        C  0.75357918  0.92534501  0.14398774    -0.09220
C928        C  0.72900745  0.89941736  0.13014607    -0.10780
C929        C  0.81865702  0.92569574  0.21125802    -0.09220
C930        C  0.83254988  0.90055374  0.23649008    -0.10780
C931        C  0.81820405  0.00189540  0.21138781    -0.09220
C932        C  0.83172498  0.02724492  0.23661520    -0.10780
C933        C  0.92663040  0.75647889  0.14673059    -0.09220
C934        C  0.90014250  0.73177346  0.13431754    -0.10780
C935        C  0.00421900  0.75619334  0.14702855    -0.09220
C936        C  0.03078599  0.73145679  0.13487979    -0.10780
C937        C  0.00414500  0.82120612  0.21251485    -0.09220
C938        C  0.03017571  0.83415774  0.23749331    -0.10780
C939        C  0.92694083  0.82176373  0.21220362    -0.09220
C940        C  0.90104677  0.83513430  0.23710281    -0.10780
C941        C  0.10999566  0.92553109  0.78923081    -0.09220
C942        C  0.09633346  0.89999042  0.76426023    -0.10780
C943        C  0.11037562  0.00187938  0.78918657    -0.09220
C944        C  0.09698549  0.02759027  0.76424239    -0.10780
C945        C  0.20015500  0.02760101  0.86995446    -0.09220
C946        C  0.17551239  0.00171092  0.85618946    -0.10780
C947        C  0.17530498  0.92524344  0.85626338    -0.09220
C948        C  0.19990239  0.89935309  0.87016113    -0.10780
C949        C  0.00359387  0.10874476  0.78848096    -0.09220
C950        C  0.02963218  0.09482767  0.76390848    -0.10780
C951        C  0.90029799  0.09441174  0.76405718    -0.09220
C952        C  0.92622237  0.10853909  0.78863445    -0.10780
C953        C  0.92634106  0.17521956  0.85371396    -0.09220
C954        C  0.90096801  0.20021694  0.86786549    -0.10780
C955        C  0.00355142  0.17538229  0.85335906    -0.09220
C956        C  0.02906507  0.20039253  0.86719822    -0.10780
C957        C  0.75393046  0.10981482  0.03847786    -0.09220
C958        C  0.72906636  0.09583786  0.06418341    -0.10780
C959        C  0.72950430  0.09607901  0.93582052    -0.09220
C960        C  0.75433864  0.11009421  0.96156207    -0.10780
C961        C  0.81950385  0.17583359  0.03938733    -0.09220
C962        C  0.83308166  0.19972334  0.06602751    -0.10780
C963        C  0.82043427  0.17623664  0.96234830    -0.09220
C964        C  0.83472638  0.20085760  0.93674824    -0.10780
C965        C  0.09668951  0.72668077  0.06626595    -0.09220
C966        C  0.10984213  0.75058020  0.03943334    -0.10780
C967        C  0.10881643  0.75024094  0.96236394    -0.09220
C968        C  0.09480621  0.72564276  0.93659882    -0.10780
C969        C  0.17483295  0.81705846  0.03848429    -0.09220
C970        C  0.19970740  0.83120930  0.06406239    -0.10780
C971        C  0.17451614  0.81670785  0.96162942    -0.09220
C972        C  0.19942933  0.83082266  0.93603422    -0.10780
C973        C  0.25864599  0.50111730  0.64094570    -0.09220
C974        C  0.23441029  0.52845028  0.63036092    -0.10780
C975        C  0.25868289  0.42464960  0.64098147    -0.09220
C976        C  0.23447958  0.39728853  0.63040814    -0.10780
C977        C  0.32227616  0.42472466  0.70652775    -0.09220
C978        C  0.33255719  0.39750357  0.73091278    -0.10780
C979        C  0.32221436  0.50116256  0.70653547    -0.09220
C980        C  0.33244077  0.52840171  0.73092862    -0.10780
C981        C  0.39896103  0.23044694  0.63343090    -0.09220
C982        C  0.42610544  0.25492915  0.64409392    -0.10780
C983        C  0.53042424  0.23043099  0.63303008    -0.09220
C984        C  0.50338838  0.25495244  0.64391463    -0.10780
C985        C  0.50349565  0.32052937  0.70698727    -0.09220
C986        C  0.53095600  0.33146531  0.73117390    -0.10780
C987        C  0.42605300  0.32053664  0.70694831    -0.09220
C988        C  0.39846461  0.33142101  0.73100948    -0.10780
C989        C  0.61062212  0.42479095  0.29428186    -0.09220
C990        C  0.59882948  0.39785741  0.27015707    -0.10780
C991        C  0.61083753  0.50130201  0.29438329    -0.09220
C992        C  0.59915091  0.52830197  0.27026825    -0.10780
C993        C  0.70113786  0.52785046  0.37021688    -0.09220
C994        C  0.67706268  0.50088143  0.35825898    -0.10780
C995        C  0.67691143  0.42456362  0.35795544    -0.09220
C996        C  0.70089507  0.39742920  0.36971869    -0.10780
C997        C  0.50286024  0.60363535  0.29331957    -0.09220
C998        C  0.53071759  0.59262806  0.26959014    -0.10780
C999        C  0.42525647  0.60381108  0.29324580    -0.09220
C1000       C  0.39740523  0.59287518  0.26947204    -0.10780
C1001       C  0.42547611  0.67001391  0.35555364    -0.09220
C1002       C  0.39832808  0.69448676  0.36629636    -0.10780
C1003       C  0.52995771  0.69449856  0.36618826    -0.09220
C1004       C  0.50280536  0.66998950  0.35552415    -0.10780
C1005       C  0.23413220  0.59456933  0.43549450    -0.09220
C1006       C  0.25945622  0.60534090  0.46191975    -0.10780
C1007       C  0.25936791  0.60598514  0.53874183    -0.09220
C1008       C  0.23469215  0.59542214  0.56585670    -0.10780
C1009       C  0.33372978  0.69468213  0.56597847    -0.09220
C1010       C  0.32349239  0.67051448  0.53850446    -0.10780
C1011       C  0.32344881  0.67030568  0.46147194    -0.09220
C1012       C  0.33378007  0.69453868  0.43407219    -0.10780
C1013       C  0.60548024  0.25450572  0.53804965    -0.09220
C1014       C  0.59510989  0.23020416  0.56537721    -0.10780
C1015       C  0.60553813  0.25475639  0.46104779    -0.09220
C1016       C  0.59497556  0.23044282  0.43380701    -0.10780
C1017       C  0.66914500  0.32023194  0.46145946    -0.09220
C1018       C  0.69432169  0.33096043  0.43483459    -0.10780
C1019       C  0.66894516  0.31972949  0.53838341    -0.09220
C1020       C  0.69330053  0.33035484  0.56576961    -0.10780
C1021       C  0.17554053  0.92550167  0.14391411    -0.09220
C1022       C  0.20009941  0.89963831  0.12994646    -0.10780
C1023       C  0.11152590  0.00202658  0.21183252    -0.09220
C1024       C  0.09828992  0.02747146  0.23710154    -0.10780
C1025       C  0.20034629  0.02778728  0.13019989    -0.09220
C1026       C  0.17574586  0.00192272  0.14402456    -0.10780
C1027       C  0.11110157  0.92581641  0.21170354    -0.09220
C1028       C  0.09756890  0.90053355  0.23696909    -0.10780
C1029       C  0.03052336  0.19524532  0.13449788    -0.09220
C1030       C  0.00402609  0.17051869  0.14680823    -0.10780
C1031       C  0.92655869  0.10549952  0.21234013    -0.09220
C1032       C  0.90043747  0.09244169  0.23718140    -0.10780
C1033       C  0.02997964  0.09298328  0.23761821    -0.09220
C1034       C  0.00382838  0.10580122  0.21267105    -0.10780
C1035       C  0.92646656  0.17034752  0.14643600    -0.09220
C1036       C  0.90007234  0.19506413  0.13382601    -0.10780
C1037       C  0.09476109  0.20100456  0.93648872    -0.09220
C1038       C  0.10884528  0.17639418  0.96220292    -0.10780
C1039       C  0.17509639  0.10980590  0.03832126    -0.09220
C1040       C  0.19995938  0.09581367  0.06400275    -0.10780
C1041       C  0.10988406  0.17604536  0.03925532    -0.09220
C1042       C  0.09665286  0.19993906  0.06605124    -0.10780
C1043       C  0.17474798  0.11011914  0.96144054    -0.09220
C1044       C  0.19964306  0.09609932  0.93577151    -0.10780
C1045       C  0.50288988  0.25539934  0.35557027    -0.09220
C1046       C  0.52989065  0.23081349  0.36646102    -0.10780
C1047       C  0.42542384  0.32182281  0.29335972    -0.09220
C1048       C  0.39765504  0.33295777  0.26957685    -0.10780
C1049       C  0.42558398  0.25534905  0.35546649    -0.09220
C1050       C  0.39857789  0.23077709  0.36633331    -0.10780
C1051       C  0.53077926  0.33310541  0.26965660    -0.09220
C1052       C  0.50301972  0.32191297  0.29342123    -0.10780
C1053       C  0.25182604  0.42448897  0.35841431    -0.09220
C1054       C  0.22777706  0.39758264  0.37057912    -0.10780
C1055       C  0.31759909  0.50119598  0.29435303    -0.09220
C1056       C  0.32937959  0.52809575  0.27015280    -0.10780
C1057       C  0.25168810  0.50074718  0.35872837    -0.09220
C1058       C  0.22753252  0.52746595  0.37111182    -0.10780
C1059       C  0.32969501  0.39784056  0.27008498    -0.09220
C1060       C  0.31781568  0.42469389  0.29427157    -0.10780
C1061       C  0.25964295  0.31935531  0.53896556    -0.09220
C1062       C  0.23499967  0.33004755  0.56608123    -0.10780
C1063       C  0.33424564  0.23056278  0.43439336    -0.09220
C1064       C  0.32365366  0.25488293  0.46162831    -0.10780
C1065       C  0.32369864  0.25459065  0.53861879    -0.09220
C1066       C  0.33419197  0.23029347  0.56589733    -0.10780
C1067       C  0.23446849  0.33104111  0.43566429    -0.09220
C1068       C  0.25974319  0.32012172  0.46210540    -0.10780
loop_ 
_geom_bond_atom_site_label_1 
_geom_bond_atom_site_label_2 
_geom_bond_distance 
_geom_bond_site_symmetry_2 
_ccdc_geom_bond_type 
C1            C2   1.355       .  D
C1         C1064   1.449       .  S
C1         C1065   1.449       .  S
C2         C1061   1.449       .  S
C2         C1068   1.448       .  S
C3            C4   1.358       .  D
C3         C1055   1.452       .  S
C3         C1060   1.451       .  S
C4         C1053   1.450       .  S
C4         C1057   1.449       .  S
C5            C6   1.356       .  D
C5         C1045   1.449       .  S
C5         C1049   1.449       .  S
C6         C1047   1.450       .  S
C6         C1052   1.450       .  S
C7            C8   1.368       .  D
C7         C1039   1.458       .  S
C7         C1043   1.459   1_554  S
C8         C1038   1.460   1_554  S
C8         C1041   1.459       .  S
C9           C10   1.365       .  D
C9         C1031   1.456       .  S
C9         C1034   1.456   1_655  S
C10        C1030   1.457   1_655  S
C10        C1035   1.458       .  S
C11          C12   1.367       .  D
C11        C1023   1.458   1_565  S
C11        C1027   1.457       .  S
C12        C1021   1.459       .  S
C12        C1026   1.458   1_565  S
C13          C14   1.355       .  D
C13        C1017   1.449       .  S
C13        C1019   1.448       .  S
C14        C1013   1.449       .  S
C14        C1015   1.449       .  S
C15          C16   1.355       .  D
C15        C1006   1.448       .  S
C15        C1007   1.448       .  S
C16        C1010   1.449       .  S
C16        C1011   1.449       .  S
C17          C18   1.355       .  D
C17         C997   1.450       .  S
C17         C999   1.450       .  S
C18        C1001   1.449       .  S
C18        C1004   1.449       .  S
C19          C20   1.357       .  D
C19         C994   1.450       .  S
C19         C995   1.449       .  S
C20         C989   1.451       .  S
C20         C991   1.451       .  S
C21          C22   1.355       .  D
C21         C982   1.448       .  S
C21         C984   1.448       .  S
C22         C985   1.449       .  S
C22         C987   1.449       .  S
C23          C24   1.354       .  D
C23         C977   1.448       .  S
C23         C979   1.449       .  S
C24         C973   1.448       .  S
C24         C975   1.449       .  S
C25          C26   1.369       .  D
C25         C969   1.458       .  S
C25         C971   1.459   1_554  S
C26         C966   1.459       .  S
C26         C967   1.460   1_554  S
C27          C28   1.369       .  D
C27         C961   1.460       .  S
C27         C963   1.460   1_554  S
C28         C957   1.459       .  S
C28         C960   1.460   1_554  S
C29          C30   1.369       .  D
C29         C953   1.459       .  S
C29         C955   1.459   1_655  S
C30         C949   1.459   1_655  S
C30         C952   1.459       .  S
C31          C32   1.368       .  D
C31         C946   1.459   1_565  S
C31         C947   1.460       .  S
C32         C941   1.459       .  S
C32         C943   1.459   1_565  S
C33          C34   1.364       .  D
C33         C937   1.455   1_655  S
C33         C939   1.455       .  S
C34         C933   1.458       .  S
C34         C935   1.457   1_655  S
C35          C36   1.368       .  D
C35         C929   1.457       .  S
C35         C931   1.458   1_565  S
C36         C925   1.459   1_565  S
C36         C927   1.459       .  S
N37          N38   1.321       .  A
N37          N43   1.312       .  A
N37         Mn66   2.187   1_556  S
N38          C45   1.348       .  A
N39          N41   1.312       .  A
N39          N40   1.321       .  A
N39         Mn55   2.180       .  S
N40          C46   1.346       .  A
N41          N42   1.321       .  A
N41         Mn66   2.189       .  S
N42          C46   1.348       .  A
N43          N44   1.321       .  A
N43         Mn55   2.183   1_556  S
N44          C45   1.347       .  A
C45         C916   1.435       .  S
C46         C911   1.434       .  S
N47          N53   1.323       .  A
N47          N48   1.331       .  A
N47         Mn77   2.258       .  S
N48          C56   1.362       .  A
N49          N50   1.312       .  A
N49          N51   1.323       .  A
N49         Mn55   2.161   1_556  S
N50          C57   1.333       .  A
N51          N52   1.329       .  A
N51         Mn77   2.247   1_556  S
N52          C57   1.359       .  A
N53          N54   1.313       .  A
N53         Mn55   2.167       .  S
N54          C56   1.334       .  A
Mn55        Cl79   2.462       .  S
C56         C919   1.443       .  S
C57         C923   1.434       .  S
N58          N59   1.321       .  A
N58          N64   1.312       .  A
N58         Mn66   2.189       .  S
N59          C67   1.348       .  A
N60          N62   1.312       .  A
N60          N61   1.322       .  A
N60         Mn78   2.183   1_556  S
N61          C68   1.347       .  A
N62          N63   1.321       .  A
N62         Mn66   2.188   1_556  S
N63          C68   1.348       .  A
N64          N65   1.321       .  A
N64         Mn78   2.181       .  S
N65          C67   1.347       .  A
Mn66        Cl79   2.597       .  S
C67         C913   1.435       .  S
C68         C910   1.436       .  S
N69          N70   1.329       .  A
N69          N75   1.323       .  A
N69         Mn77   2.247   1_556  S
N70          C80   1.359       .  A
N71          N72   1.313       .  A
N71          N73   1.323       .  A
N71         Mn78   2.168       .  S
N72          C81   1.334       .  A
N73          N74   1.331       .  A
N73         Mn77   2.258       .  S
N74          C81   1.362       .  A
N75          N76   1.312       .  A
N75         Mn78   2.161   1_556  S
N76          C80   1.333       .  A
Mn77        Cl79   2.587       .  S
Mn78        Cl79   2.462       .  S
C80         C918   1.434       .  S
C81         C922   1.443       .  S
N82          N83   1.321       .  A
N82          N88   1.312       .  A
N82        Mn111   2.188   1_556  S
N83          C90   1.348       .  A
N84          N86   1.313       .  A
N84          N85   1.321       .  A
N84        Mn100   2.183       .  S
N85          C91   1.347       .  A
N86          N87   1.321       .  A
N86        Mn111   2.189       .  S
N87          C91   1.348       .  A
N88          N89   1.322       .  A
N88        Mn100   2.186   1_556  S
N89          C90   1.348       .  A
C90         C899   1.436       .  S
C91         C893   1.435       .  S
N92          N98   1.323       .  A
N92          N93   1.332       .  A
N92        Mn122   2.258       .  S
N93         C101   1.362       .  A
N94          N95   1.312       .  A
N94          N96   1.322       .  A
N94        Mn100   2.160   1_556  S
N95         C102   1.333       .  A
N96          N97   1.329       .  A
N96        Mn122   2.248   1_556  S
N97         C102   1.359       .  A
N98          N99   1.313       .  A
N98        Mn100   2.167       .  S
N99         C101   1.334       .  A
Mn100      Cl124   2.462       .  S
C101        C902   1.443       .  S
C102        C907   1.435       .  S
N103        N104   1.320       .  A
N103        N109   1.313       .  A
N103       Mn111   2.189       .  S
N104        C112   1.348       .  A
N105        N107   1.312       .  A
N105        N106   1.322       .  A
N105       Mn123   2.186   1_556  S
N106        C113   1.348       .  A
N107        N108   1.321       .  A
N107       Mn111   2.188   1_556  S
N108        C113   1.348       .  A
N109        N110   1.321       .  A
N109       Mn123   2.182       .  S
N110        C112   1.347       .  A
Mn111      Cl124   2.587       .  S
C112        C895   1.435       .  S
C113        C897   1.436       .  S
N114        N115   1.329       .  A
N114        N120   1.322       .  A
N114       Mn122   2.248   1_556  S
N115        C125   1.359       .  A
N116        N117   1.313       .  A
N116        N118   1.323       .  A
N116       Mn123   2.167       .  S
N117        C126   1.334       .  A
N118        N119   1.332       .  A
N118       Mn122   2.259       .  S
N119        C126   1.362       .  A
N120        N121   1.312       .  A
N120       Mn123   2.160   1_556  S
N121        C125   1.333       .  A
Mn122      Cl124   2.599       .  S
Mn123      Cl124   2.462       .  S
C125        C904   1.434       .  S
C126        C905   1.444       .  S
C127        C128   1.359       .  D
C127        C908   1.455       .  S
C127        C964   1.459       .  S
C128        C891   1.458       .  S
C128        C954   1.458       .  S
C129        C130   1.362       .  D
C129        C890   1.450       .  S
C129        C934   1.455       .  S
C130        C887   1.459       .  S
C130        C906   1.465       .  S
N131        N132   1.330       .  A
N131        N137   1.323       .  A
N131       Mn160   2.251       .  S
N132        C139   1.360       .  A
N133        N135   1.323       .  A
N133        N134   1.312       .  A
N133       Mn149   2.163   1_455  S
N134        C140   1.333       .  A
N135        N136   1.330       .  A
N135       Mn160   2.251   1_455  S
N136        C140   1.360       .  A
N137        N138   1.312       .  A
N137       Mn149   2.164       .  S
N138        C139   1.333       .  A
C139        C892   1.438       .  S
C140        C885   1.437       .  S
N141        N147   1.312       .  A
N141        N142   1.320       .  A
N141       Mn171   2.186   1_455  S
N142        C150   1.347       .  A
N143        N144   1.321       .  A
N143        N145   1.312       .  A
N143       Mn149   2.180       .  S
N144        C151   1.347       .  A
N145        N146   1.320       .  A
N145       Mn171   2.186       .  S
N146        C151   1.347       .  A
N147        N148   1.321       .  A
N147       Mn149   2.180   1_455  S
N148        C150   1.347       .  A
Mn149      Cl173   2.461       .  S
C150        C877   1.433       .  S
C151        C873   1.433       .  S
N152        N153   1.330       .  A
N152        N158   1.323       .  A
N152       Mn160   2.251   1_455  S
N153        C161   1.360       .  A
N154        N156   1.323       .  A
N154        N155   1.312       .  A
N154       Mn172   2.164       .  S
N155        C162   1.333       .  A
N156        N157   1.330       .  A
N156       Mn160   2.252       .  S
N157        C162   1.360       .  A
N158        N159   1.312       .  A
N158       Mn172   2.164   1_455  S
N159        C161   1.333       .  A
Mn160      Cl173   2.585       .  S
C161        C881   1.438       .  S
C162        C884   1.438       .  S
N163        N164   1.320       .  A
N163        N169   1.312       .  A
N163       Mn171   2.185       .  S
N164        C174   1.347       .  A
N165        N166   1.321       .  A
N165        N167   1.312       .  A
N165       Mn172   2.179   1_455  S
N166        C175   1.346       .  A
N167        N168   1.320       .  A
N167       Mn171   2.186   1_455  S
N168        C175   1.347       .  A
N169        N170   1.321       .  A
N169       Mn172   2.179       .  S
N170        C174   1.347       .  A
Mn171      Cl173   2.596       .  S
Mn172      Cl173   2.461       .  S
C174        C880   1.432       .  S
C175        C875   1.432       .  S
C176        C177   1.358       .  D
C176        C917   1.455       .  S
C176       C1037   1.459       .  S
C177        C886   1.458       .  S
C177        C956   1.458       .  S
C178        C179   1.359       .  D
C178        C870   1.459       .  S
C178        C903   1.455       .  S
C179        C871   1.458       .  S
C179        C883   1.458       .  S
C180        C181   1.358       .  D
C180        C924   1.454       .  S
C180        C968   1.459       .  S
C181        C867   1.458       .  S
C181        C882   1.458       .  S
C182        C183   1.362       .  D
C182        C865   1.450       .  S
C182       C1036   1.455       .  S
C183        C901   1.465       .  S
C183        C962   1.459       .  S
N184        N185   1.329       .  A
N184        N190   1.322       .  A
N184       Mn213   2.248       .  S
N185        C192   1.360       .  A
N186        N188   1.322       .  A
N186        N187   1.313       .  A
N186       Mn202   2.165       .  S
N187        C193   1.335       .  A
N188        N189   1.330       .  A
N188       Mn213   2.250       .  S
N189        C193   1.360       .  A
N190        N191   1.312       .  A
N190       Mn202   2.164       .  S
N191        C192   1.335       .  A
C192        C854   1.437       .  S
C193        C859   1.438       .  S
N194        N200   1.313       .  A
N194        N195   1.320       .  A
N194       Mn224   2.186       .  S
N195        C203   1.346       .  A
N196        N197   1.322       .  A
N196        N198   1.313       .  A
N196       Mn202   2.187       .  S
N197        C204   1.348       .  A
N198        N199   1.320       .  A
N198       Mn224   2.185       .  S
N199        C204   1.346       .  A
N200        N201   1.322       .  A
N200       Mn202   2.186       .  S
N201        C203   1.347       .  A
Mn202      Cl226   2.463       .  S
C203        C866   1.435       .  S
C204        C889   1.435       .  S
N205        N206   1.330       .  A
N205        N211   1.322       .  A
N205       Mn213   2.249   1_455  S
N206        C214   1.360       .  A
N207        N209   1.322       .  A
N207        N208   1.312       .  A
N207       Mn225   2.162       .  S
N208        C215   1.334       .  A
N209        N210   1.329       .  A
N209       Mn213   2.247   1_455  S
N210        C215   1.360       .  A
N211        N212   1.312       .  A
N211       Mn225   2.163       .  S
N212        C214   1.334       .  A
Mn213      Cl226   2.597       .  S
C214        C856   1.437       .  S
C215        C858   1.436       .  S
N216        N217   1.320       .  A
N216        N222   1.312       .  A
N216       Mn224   2.186   1_455  S
N217        C227   1.346       .  A
N218        N219   1.322       .  A
N218        N220   1.313       .  A
N218       Mn225   2.184       .  S
N219        C228   1.347       .  A
N220        N221   1.320       .  A
N220       Mn224   2.187   1_455  S
N221        C228   1.346       .  A
N222        N223   1.322       .  A
N222       Mn225   2.185       .  S
N223        C227   1.347       .  A
Mn224      Cl226   2.587       .  S
Mn225      Cl226   2.461   1_455  S
C227        C863   1.435       .  S
C228        C862   1.434       .  S
N229        N230   1.320       .  A
N229        N235   1.312       .  A
N229       Mn258   2.188   1_556  S
N230        C237   1.348       .  A
N231        N233   1.312       .  A
N231        N232   1.321       .  A
N231       Mn247   2.183       .  S
N232        C238   1.347       .  A
N233        N234   1.321       .  A
N233       Mn258   2.188       .  S
N234        C238   1.348       .  A
N235        N236   1.321       .  A
N235       Mn247   2.180   1_556  S
N236        C237   1.347       .  A
C237        C843   1.434       .  S
C238        C840   1.436       .  S
N239        N245   1.323       .  A
N239        N240   1.329       .  A
N239       Mn269   2.244       .  S
N240        C248   1.359       .  A
N241        N242   1.312       .  A
N241        N243   1.323       .  A
N241       Mn247   2.165   1_556  S
N242        C249   1.334       .  A
N243        N244   1.329       .  A
N243       Mn269   2.246   1_556  S
N244        C249   1.359       .  A
N245        N246   1.312       .  A
N245       Mn247   2.163       .  S
N246        C248   1.334       .  A
Mn247      Cl271   2.462       .  S
C248        C847   1.434       .  S
C249        C852   1.435       .  S
N250        N251   1.320       .  A
N250        N256   1.312       .  A
N250       Mn258   2.188       .  S
N251        C259   1.348       .  A
N252        N254   1.312       .  A
N252        N253   1.321       .  A
N252       Mn270   2.180   1_556  S
N253        C260   1.347       .  A
N254        N255   1.320       .  A
N254       Mn258   2.187   1_556  S
N255        C260   1.347       .  A
N256        N257   1.321       .  A
N256       Mn270   2.183       .  S
N257        C259   1.347       .  A
Mn258      Cl271   2.594       .  S
C259        C841   1.435       .  S
C260        C838   1.433       .  S
N261        N262   1.329       .  A
N261        N267   1.323       .  A
N261       Mn269   2.246   1_556  S
N262        C272   1.359       .  A
N263        N264   1.312       .  A
N263        N265   1.323       .  A
N263       Mn270   2.164       .  S
N264        C273   1.334       .  A
N265        N266   1.329       .  A
N265       Mn269   2.244       .  S
N266        C273   1.359       .  A
N267        N268   1.312       .  A
N267       Mn270   2.165   1_556  S
N268        C272   1.334       .  A
Mn269      Cl271   2.583       .  S
Mn270      Cl271   2.462       .  S
C272        C845   1.436       .  S
C273        C850   1.435       .  S
N274        N275   1.321       .  A
N274        N280   1.313       .  A
N274       Mn303   2.191       .  S
N275        C282   1.348       .  A
N276        N278   1.313       .  A
N276        N277   1.322       .  A
N276       Mn292   2.183   1_545  S
N277        C283   1.347       .  A
N278        N279   1.321       .  A
N278       Mn303   2.191   1_545  S
N279        C283   1.348       .  A
N280        N281   1.322       .  A
N280       Mn292   2.183       .  S
N281        C282   1.347       .  A
C282        C827   1.436       .  S
C283        C823   1.436       .  S
N284        N290   1.322       .  A
N284        N285   1.329       .  A
N284       Mn314   2.243   1_545  S
N285        C293   1.359       .  A
N286        N287   1.312       .  A
N286        N288   1.322       .  A
N286       Mn292   2.163       .  S
N287        C294   1.334       .  A
N288        N289   1.329       .  A
N288       Mn314   2.243       .  S
N289        C294   1.359       .  A
N290        N291   1.312       .  A
N290       Mn292   2.163   1_545  S
N291        C293   1.334       .  A
Mn292      Cl316   2.462       .  S
C293        C830   1.435       .  S
C294        C835   1.434       .  S
N295        N296   1.321       .  A
N295        N301   1.313       .  A
N295       Mn303   2.191   1_545  S
N296        C304   1.348       .  A
N297        N299   1.313       .  A
N297        N298   1.321       .  A
N297       Mn315   2.184       .  S
N298        C305   1.347       .  A
N299        N300   1.321       .  A
N299       Mn303   2.191       .  S
N300        C305   1.348       .  A
N301        N302   1.321       .  A
N301       Mn315   2.184   1_545  S
N302        C304   1.347       .  A
Mn303      Cl316   2.583       .  S
C304        C826   1.436       .  S
C305        C821   1.436       .  S
N306        N307   1.329       .  A
N306        N312   1.322       .  A
N306       Mn314   2.244       .  S
N307        C317   1.359       .  A
N308        N309   1.312       .  A
N308        N310   1.322       .  A
N308       Mn315   2.163   1_545  S
N309        C318   1.334       .  A
N310        N311   1.329       .  A
N310       Mn314   2.244   1_545  S
N311        C318   1.359       .  A
N312        N313   1.312       .  A
N312       Mn315   2.163       .  S
N313        C317   1.334       .  A
Mn314      Cl316   2.593       .  S
Mn315      Cl316   2.462       .  S
C317        C831   1.435       .  S
C318        C834   1.435       .  S
C319        C320   1.359       .  D
C319        C820   1.457       .  S
C319        C972   1.458       .  S
C320        C836   1.455       .  S
C320        C948   1.458       .  S
C321        C322   1.359       .  D
C321        C846   1.456       .  S
C321        C959   1.459       .  S
C322        C818   1.458       .  S
C322        C833   1.455       .  S
C323        C324   1.359       .  D
C323        C811   1.459       .  S
C323        C832   1.455       .  S
C324        C813   1.459       .  S
C324        C815   1.457       .  S
N325        N326   1.329       .  A
N325        N331   1.322       .  A
N325       Mn354   2.247   1_556  S
N326        C333   1.359       .  A
N327        N329   1.322       .  A
N327        N328   1.312       .  A
N327       Mn343   2.163       .  S
N328        C334   1.334       .  A
N329        N330   1.329       .  A
N329       Mn354   2.245       .  S
N330        C334   1.359       .  A
N331        N332   1.312       .  A
N331       Mn343   2.164   1_556  S
N332        C333   1.334       .  A
C333        C819   1.436       .  S
C334        C809   1.435       .  S
N335        N341   1.312       .  A
N335        N336   1.321       .  A
N335       Mn365   2.189       .  S
N336        C344   1.348       .  A
N337        N338   1.321       .  A
N337        N339   1.312       .  A
N337       Mn343   2.183   1_556  S
N338        C345   1.347       .  A
N339        N340   1.320       .  A
N339       Mn365   2.189   1_556  S
N340        C345   1.348       .  A
N341        N342   1.322       .  A
N341       Mn343   2.186       .  S
N342        C344   1.348       .  A
Mn343      Cl367   2.462       .  S
C344        C801   1.436       .  S
C345        C804   1.434       .  S
N346        N347   1.329       .  A
N346        N352   1.322       .  A
N346       Mn354   2.246       .  S
N347        C355   1.359       .  A
N348        N350   1.322       .  A
N348        N349   1.313       .  A
N348       Mn366   2.165   1_556  S
N349        C356   1.334       .  A
N350        N351   1.329       .  A
N350       Mn354   2.247   1_556  S
N351        C356   1.359       .  A
N352        N353   1.312       .  A
N352       Mn366   2.163       .  S
N353        C355   1.334       .  A
Mn354      Cl367   2.595       .  S
C355        C807   1.436       .  S
C356        C816   1.437       .  S
N357        N358   1.320       .  A
N357        N363   1.313       .  A
N357       Mn365   2.188   1_556  S
N358        C368   1.348       .  A
N359        N360   1.321       .  A
N359        N361   1.313       .  A
N359       Mn366   2.185       .  S
N360        C369   1.348       .  A
N361        N362   1.320       .  A
N361       Mn365   2.188       .  S
N362        C369   1.348       .  A
N363        N364   1.321       .  A
N363       Mn366   2.183   1_556  S
N364        C368   1.347       .  A
Mn365      Cl367   2.585       .  S
Mn366      Cl367   2.462       .  S
C368        C806   1.434       .  S
C369        C799   1.435       .  S
C370        C371   1.358       .  D
C370        C798   1.454       .  S
C370       C1022   1.457       .  S
C371        C810   1.456       .  S
C371        C970   1.457       .  S
C372        C373   1.358       .  D
C372        C851   1.456       .  S
C372       C1044   1.458       .  S
C373        C829   1.455       .  S
C373        C945   1.458       .  S
C374        C375   1.359       .  D
C374        C796   1.454       .  S
C374        C928   1.458       .  S
C375        C794   1.458       .  S
C375        C808   1.456       .  S
N376        N377   1.329       .  A
N376        N382   1.322       .  A
N376       Mn405   2.242       .  S
N377        C384   1.358       .  A
N378        N380   1.322       .  A
N378        N379   1.312       .  A
N378       Mn394   2.163   1_545  S
N379        C385   1.334       .  A
N380        N381   1.329       .  A
N380       Mn405   2.242   1_545  S
N381        C385   1.359       .  A
N382        N383   1.312       .  A
N382       Mn394   2.163       .  S
N383        C384   1.334       .  A
C384        C797   1.434       .  S
C385        C791   1.434       .  S
N386        N392   1.313       .  A
N386        N387   1.321       .  A
N386       Mn416   2.192   1_545  S
N387        C395   1.348       .  A
N388        N389   1.322       .  A
N388        N390   1.312       .  A
N388       Mn394   2.183       .  S
N389        C396   1.347       .  A
N390        N391   1.321       .  A
N390       Mn416   2.192       .  S
N391        C396   1.348       .  A
N392        N393   1.322       .  A
N392       Mn394   2.183   1_545  S
N393        C395   1.347       .  A
Mn394      Cl418   2.461       .  S
C395        C785   1.437       .  S
C396        C782   1.436       .  S
N397        N398   1.329       .  A
N397        N403   1.322       .  A
N397       Mn405   2.242   1_545  S
N398        C406   1.359       .  A
N399        N401   1.322       .  A
N399        N400   1.312       .  A
N399       Mn417   2.163       .  S
N400        C407   1.334       .  A
N401        N402   1.329       .  A
N401       Mn405   2.242       .  S
N402        C407   1.358       .  A
N403        N404   1.312       .  A
N403       Mn417   2.163   1_545  S
N404        C406   1.334       .  A
Mn405      Cl418   2.592       .  S
C406        C789   1.434       .  S
C407        C795   1.434       .  S
N408        N409   1.321       .  A
N408        N414   1.313       .  A
N408       Mn416   2.191       .  S
N409        C419   1.348       .  A
N410        N411   1.321       .  A
N410        N412   1.313       .  A
N410       Mn417   2.182   1_545  S
N411        C420   1.347       .  A
N412        N413   1.321       .  A
N412       Mn416   2.191   1_545  S
N413        C420   1.348       .  A
N414        N415   1.321       .  A
N414       Mn417   2.183       .  S
N415        C419   1.347       .  A
Mn416      Cl418   2.582       .  S
Mn417      Cl418   2.462       .  S
C419        C787   1.436       .  S
C420        C783   1.436       .  S
N421        N422   1.321       .  A
N421        N427   1.312       .  A
N421       Mn450   2.190       .  S
N422        C429   1.348       .  A
N423        N425   1.312       .  A
N423        N424   1.321       .  A
N423       Mn439   2.180   1_545  S
N424        C430   1.346       .  A
N425        N426   1.321       .  A
N425       Mn450   2.191   1_545  S
N426        C430   1.348       .  A
N427        N428   1.321       .  A
N427       Mn439   2.181       .  S
N428        C429   1.347       .  A
C429        C771   1.435       .  S
C430        C767   1.435       .  S
N431        N437   1.322       .  A
N431        N432   1.329       .  A
N431       Mn461   2.244   1_545  S
N432        C440   1.359       .  A
N433        N434   1.312       .  A
N433        N435   1.322       .  A
N433       Mn439   2.161       .  S
N434        C441   1.333       .  A
N435        N436   1.329       .  A
N435       Mn461   2.242       .  S
N436        C441   1.358       .  A
N437        N438   1.312       .  A
N437       Mn439   2.161   1_545  S
N438        C440   1.333       .  A
Mn439      Cl463   2.459       .  S
C440        C774   1.434       .  S
C441        C780   1.433       .  S
N442        N443   1.321       .  A
N442        N448   1.313       .  A
N442       Mn450   2.189   1_545  S
N443        C451   1.347       .  A
N444        N446   1.313       .  A
N444        N445   1.321       .  A
N444       Mn462   2.181       .  S
N445        C452   1.346       .  A
N446        N447   1.320       .  A
N446       Mn450   2.189       .  S
N447        C452   1.347       .  A
N448        N449   1.321       .  A
N448       Mn462   2.180   1_545  S
N449        C451   1.346       .  A
Mn450      Cl463   2.583       .  S
C451        C769   1.434       .  S
C452        C766   1.434       .  S
N453        N454   1.329       .  A
N453        N459   1.322       .  A
N453       Mn461   2.244       .  S
N454        C464   1.359       .  A
N455        N456   1.312       .  A
N455        N457   1.322       .  A
N455       Mn462   2.163   1_545  S
N456        C465   1.334       .  A
N457        N458   1.329       .  A
N457       Mn461   2.245   1_545  S
N458        C465   1.359       .  A
N459        N460   1.312       .  A
N459       Mn462   2.163       .  S
N460        C464   1.334       .  A
Mn461      Cl463   2.593       .  S
Mn462      Cl463   2.460       .  S
C464        C776   1.435       .  S
C465        C777   1.436       .  S
N466        N467   1.319       .  A
N466        N472   1.312       .  A
N466       Mn495   2.181   1_455  S
N467        C474   1.346       .  A
N468        N470   1.312       .  A
N468        N469   1.320       .  A
N468       Mn484   2.172       .  S
N469        C475   1.345       .  A
N470        N471   1.319       .  A
N470       Mn495   2.181       .  S
N471        C475   1.346       .  A
N472        N473   1.320       .  A
N472       Mn484   2.172   1_455  S
N473        C474   1.345       .  A
C474        C755   1.426       .  S
C475        C749   1.426       .  S
N476        N482   1.322       .  A
N476        N477   1.329       .  A
N476       Mn506   2.245       .  S
N477        C485   1.359       .  A
N478        N479   1.312       .  A
N478        N480   1.322       .  A
N478       Mn484   2.162   1_455  S
N479        C486   1.334       .  A
N480        N481   1.329       .  A
N480       Mn506   2.245   1_455  S
N481        C486   1.359       .  A
N482        N483   1.312       .  A
N482       Mn484   2.163       .  S
N483        C485   1.334       .  A
Mn484      Cl508   2.461       .  S
C485        C757   1.435       .  S
C486        C763   1.435       .  S
N487        N488   1.320       .  A
N487        N493   1.312       .  A
N487       Mn495   2.188       .  S
N488        C496   1.348       .  A
N489        N491   1.312       .  A
N489        N490   1.321       .  A
N489       Mn507   2.181   1_455  S
N490        C497   1.347       .  A
N491        N492   1.321       .  A
N491       Mn495   2.188   1_455  S
N492        C497   1.348       .  A
N493        N494   1.321       .  A
N493       Mn507   2.182       .  S
N494        C496   1.347       .  A
Mn495      Cl508   2.594       .  S
C496        C753   1.435       .  S
C497        C752   1.435       .  S
N498        N499   1.329       .  A
N498        N504   1.322       .  A
N498       Mn506   2.244   1_455  S
N499        C509   1.359       .  A
N500        N501   1.312       .  A
N500        N502   1.323       .  A
N500       Mn507   2.163       .  S
N501        C510   1.334       .  A
N502        N503   1.329       .  A
N502       Mn506   2.244       .  S
N503        C510   1.359       .  A
N504        N505   1.312       .  A
N504       Mn507   2.163   1_455  S
N505        C509   1.334       .  A
Mn506      Cl508   2.582       .  S
Mn507      Cl508   2.460       .  S
C509        C759   1.434       .  S
C510        C762   1.434       .  S
C511        C512   1.356       .  D
C511        C758   1.456       .  S
C511       C1032   1.455       .  S
C512        C748   1.454       .  S
C512        C932   1.458       .  S
N513        N514   1.321       .  A
N513        N519   1.312       .  A
N513       Mn542   2.190   1_545  S
N514        C521   1.348       .  A
N515        N517   1.312       .  A
N515        N516   1.321       .  A
N515       Mn531   2.181       .  S
N516        C522   1.347       .  A
N517        N518   1.321       .  A
N517       Mn542   2.190       .  S
N518        C522   1.348       .  A
N519        N520   1.321       .  A
N519       Mn531   2.180   1_545  S
N520        C521   1.347       .  A
C521        C737   1.436       .  S
C522        C733   1.435       .  S
N523        N529   1.323       .  A
N523        N524   1.329       .  A
N523       Mn553   2.244       .  S
N524        C532   1.359       .  A
N525        N526   1.312       .  A
N525        N527   1.322       .  A
N525       Mn531   2.162   1_545  S
N526        C533   1.333       .  A
N527        N528   1.329       .  A
N527       Mn553   2.245   1_545  S
N528        C533   1.359       .  A
N529        N530   1.312       .  A
N529       Mn531   2.162       .  S
N530        C532   1.333       .  A
Mn531      Cl555   2.460       .  S
C532        C741   1.433       .  S
C533        C747   1.434       .  S
N534        N535   1.320       .  A
N534        N540   1.312       .  A
N534       Mn542   2.187       .  S
N535        C543   1.347       .  A
N536        N538   1.312       .  A
N536        N537   1.321       .  A
N536       Mn554   2.180   1_545  S
N537        C544   1.346       .  A
N538        N539   1.321       .  A
N538       Mn542   2.188   1_545  S
N539        C544   1.347       .  A
N540        N541   1.321       .  A
N540       Mn554   2.181       .  S
N541        C543   1.347       .  A
Mn542      Cl555   2.594       .  S
C543        C739   1.434       .  S
C544        C735   1.434       .  S
N545        N546   1.329       .  A
N545        N551   1.323       .  A
N545       Mn553   2.246   1_545  S
N546        C556   1.359       .  A
N547        N548   1.312       .  A
N547        N549   1.323       .  A
N547       Mn554   2.164       .  S
N548        C557   1.334       .  A
N549        N550   1.329       .  A
N549       Mn553   2.246       .  S
N550        C557   1.359       .  A
N551        N552   1.312       .  A
N551       Mn554   2.164   1_545  S
N552        C556   1.334       .  A
Mn553      Cl555   2.583       .  S
Mn554      Cl555   2.460       .  S
C556        C743   1.436       .  S
C557        C745   1.436       .  S
C558        C559   1.358       .  D
C558        C727   1.458       .  S
C558        C731   1.455       .  S
C559        C729   1.458       .  S
C559        C746   1.456       .  S
N560        N561   1.329       .  A
N560        N566   1.322       .  A
N560       Mn589   2.244       .  S
N561        C568   1.359       .  A
N562        N564   1.322       .  A
N562        N563   1.312       .  A
N562       Mn578   2.162   1_455  S
N563        C569   1.334       .  A
N564        N565   1.329       .  A
N564       Mn589   2.244   1_455  S
N565        C569   1.359       .  A
N566        N567   1.312       .  A
N566       Mn578   2.163       .  S
N567        C568   1.334       .  A
C568        C732   1.435       .  S
C569        C723   1.434       .  S
N570        N576   1.312       .  A
N570        N571   1.321       .  A
N570       Mn600   2.189   1_455  S
N571        C579   1.348       .  A
N572        N573   1.322       .  A
N572        N574   1.312       .  A
N572       Mn578   2.185       .  S
N573        C580   1.348       .  A
N574        N575   1.320       .  A
N574       Mn600   2.188       .  S
N575        C580   1.348       .  A
N576        N577   1.321       .  A
N576       Mn578   2.184   1_455  S
N577        C579   1.347       .  A
Mn578      Cl602   2.460       .  S
C579        C718   1.436       .  S
C580        C715   1.435       .  S
N581        N582   1.329       .  A
N581        N587   1.322       .  A
N581       Mn589   2.245   1_455  S
N582        C590   1.359       .  A
N583        N585   1.322       .  A
N583        N584   1.312       .  A
N583       Mn601   2.162       .  S
N584        C591   1.334       .  A
N585        N586   1.329       .  A
N585       Mn589   2.245       .  S
N586        C591   1.359       .  A
N587        N588   1.312       .  A
N587       Mn601   2.161   1_455  S
N588        C590   1.334       .  A
Mn589      Cl602   2.593       .  S
C590        C721   1.435       .  S
C591        C725   1.435       .  S
N592        N593   1.319       .  A
N592        N598   1.313       .  A
N592       Mn600   2.181       .  S
N593        C603   1.346       .  A
N594        N595   1.320       .  A
N594        N596   1.313       .  A
N594       Mn601   2.174   1_455  S
N595        C604   1.345       .  A
N596        N597   1.319       .  A
N596       Mn600   2.182   1_455  S
N597        C604   1.346       .  A
N598        N599   1.320       .  A
N598       Mn601   2.175       .  S
N599        C603   1.345       .  A
Mn600      Cl602   2.584       .  S
Mn601      Cl602   2.460       .  S
C603        C720   1.427       .  S
C604        C713   1.427       .  S
C605        C606   1.356       .  D
C605        C726   1.456       .  S
C605        C940   1.454       .  S
C606        C742   1.453       .  S
C606        C930   1.457       .  S
C607        C608   1.358       .  D
C607        C775   1.455       .  S
C607        C942   1.458       .  S
C608        C711   1.457       .  S
C608        C724   1.455       .  S
C609        C610   1.359       .  D
C609        C761   1.455       .  S
C609        C951   1.458       .  S
C610        C709   1.458       .  S
C610        C744   1.457       .  S
C611        C612   1.356       .  D
C611        C779   1.453       .  S
C611       C1028   1.457       .  S
C612        C722   1.456       .  S
C612        C938   1.454       .  S
C613        C614   1.356       .  D
C613        C764   1.455       .  S
C613       C1033   1.455       .  S
C614        C773   1.454       .  S
C614       C1024   1.457       .  S
C615        C616   1.358       .  D
C615        C760   1.454       .  S
C615        C950   1.458       .  S
C616        C778   1.456       .  S
C616        C944   1.458       .  S
C617        C618   1.356       .  D
C617        C707   1.445       .  S
C617        C828   1.452       .  S
C618        C765   1.449       .  S
C618       C1009   1.446       .  S
C619        C620   1.356       .  D
C619        C751   1.451       .  S
C619       C1062   1.446       .  S
C620        C878   1.450       .  S
C620        C976   1.445       .  S
C621        C622   1.354       .  D
C621        C750   1.441       .  S
C621       C1018   1.446       .  S
C622        C860   1.459       .  S
C622        C996   1.448       .  S
C623        C624   1.357       .  D
C623        C768   1.451       .  S
C623       C1063   1.447       .  S
C624        C786   1.452       .  S
C624       C1050   1.446       .  S
C625        C626   1.357       .  D
C625        C781   1.452       .  S
C625       C1002   1.446       .  S
C626        C772   1.450       .  S
C626       C1012   1.446       .  S
C627        C628   1.354       .  D
C627        C756   1.441       .  S
C627       C1067   1.445       .  S
C628        C855   1.459       .  S
C628       C1054   1.448       .  S
C629        C630   1.356       .  D
C629        C770   1.449       .  S
C629       C1066   1.446       .  S
C630        C824   1.452       .  S
C630        C981   1.446       .  S
C631        C632   1.356       .  D
C631        C705   1.445       .  S
C631        C874   1.449       .  S
C632        C754   1.451       .  S
C632       C1020   1.446       .  S
C633        C634   1.358       .  D
C633        C848   1.454       .  S
C633       C1040   1.457       .  S
C634        C792   1.454       .  S
C634       C1025   1.456       .  S
C635        C636   1.358       .  D
C635        C849   1.455       .  S
C635        C958   1.458       .  S
C636        C790   1.455       .  S
C636        C926   1.457       .  S
C637        C638   1.356       .  D
C637        C909   1.451       .  S
C637        C978   1.445       .  S
C638        C844   1.449       .  S
C638        C988   1.446       .  S
C639        C640   1.356       .  D
C639        C837   1.449       .  S
C639        C986   1.446       .  S
C640        C703   1.445       .  S
C640        C900   1.452       .  S
C641        C642   1.357       .  D
C641        C788   1.451       .  S
C641       C1003   1.447       .  S
C642        C701   1.446       .  S
C642        C734   1.451       .  S
C643        C644   1.357       .  D
C643        C784   1.451       .  S
C643       C1046   1.447       .  S
C644        C738   1.451       .  S
C644       C1016   1.446       .  S
C645        C646   1.356       .  D
C645        C697   1.445       .  S
C645        C898   1.451       .  S
C646        C700   1.446       .  S
C646        C805   1.449       .  S
C647        C648   1.361       .  D
C647        C920   1.464       .  S
C647        C965   1.458       .  S
C648        C864   1.450       .  S
C648        C936   1.455       .  S
C649        C650   1.361       .  D
C649        C921   1.464       .  S
C649       C1042   1.458       .  S
C650        C861   1.450       .  S
C650       C1029   1.455       .  S
C651        C652   1.356       .  D
C651        C915   1.451       .  S
C651        C980   1.446       .  S
C652        C695   1.446       .  S
C652        C803   1.450       .  S
C653        C654   1.354       .  D
C653        C857   1.457       .  S
C653       C1058   1.448       .  S
C654        C714   1.442       .  S
C654       C1005   1.445       .  S
C655        C656   1.354       .  D
C655        C693   1.445       .  S
C655        C719   1.442       .  S
C656        C853   1.458       .  S
C656        C993   1.448       .  S
C657        C658   1.356       .  D
C657        C691   1.445       .  S
C657        C879   1.448       .  S
C658        C689   1.445       .  S
C658        C716   1.451       .  S
C659        C660   1.357       .  D
C659        C736   1.450       .  S
C659       C1014   1.446       .  S
C660        C825   1.452       .  S
C660        C983   1.446       .  S
C661        C662   1.356       .  D
C661        C686   1.446       .  S
C661        C822   1.452       .  S
C662        C688   1.446       .  S
C662        C740   1.450       .  S
C663        C664   1.356       .  D
C663        C717   1.452       .  S
C663       C1008   1.445       .  S
C664        C876   1.448       .  S
C664        C974   1.445       .  S
C665        C666   1.368       .  D
C665        C868   1.458   1_655  S
C665        C872   1.458       .  S
C666        C712   1.459   1_655  S
C666        C728   1.459       .  S
C667        C668   1.369       .  D
C667        C812   1.460       .  S
C667        C817   1.460   1_565  S
C668        C710   1.459   1_565  S
C668        C730   1.459       .  S
C669        C670   1.369       .  D
C669        C793   1.459       .  S
C669        C814   1.460   1_554  S
C670        C869   1.460   1_554  S
C670        C888   1.460       .  S
C671        C672   1.355       .  D
C671        C696   1.448       .  S
C671        C699   1.448       .  S
C672        C685   1.448       .  S
C672        C708   1.448       .  S
C673        C674   1.354       .  D
C673        C698   1.448       .  S
C673        C704   1.448       .  S
C674        C692   1.448       .  S
C674        C706   1.448       .  S
C675        C676   1.355       .  D
C675        C687   1.449       .  S
C675        C702   1.449       .  S
C676        C690   1.448       .  S
C676        C694   1.448       .  S
C677        C678   1.358       .  D
C677        C842   1.452       .  S
C677       C1051   1.447       .  S
C678        C894   1.451       .  S
C678        C990   1.448       .  S
C679        C680   1.358       .  D
C679        C800   1.452       .  S
C679        C998   1.446       .  S
C680        C896   1.450       .  S
C680        C992   1.448       .  S
C681        C682   1.358       .  D
C681        C912   1.450       .  S
C681       C1056   1.449       .  S
C682        C802   1.453       .  S
C682       C1000   1.447       .  S
C683        C684   1.358       .  D
C683        C914   1.451       .  S
C683       C1059   1.448       .  S
C684        C839   1.452       .  S
C684       C1048   1.447       .  S
C685        C686   1.207       .  T
C687        C688   1.207       .  T
C689        C690   1.207       .  T
C691        C692   1.207       .  T
C693        C694   1.207       .  T
C695        C696   1.207       .  T
C697        C698   1.207       .  T
C699        C700   1.207       .  T
C701        C702   1.207       .  T
C703        C704   1.207       .  T
C705        C706   1.207       .  T
C707        C708   1.207       .  T
C709        C710   1.215       .  T
C711        C712   1.215       .  T
C713        C714   1.201       .  T
C715        C716   1.206       .  T
C717        C718   1.206       .  T
C719        C720   1.201       .  T
C721        C722   1.209       .  T
C723        C724   1.208       .  T
C725        C726   1.209       .  T
C727        C728   1.215       .  T
C729        C730   1.215       .  T
C731        C732   1.208       .  T
C733        C734   1.206       .  T
C735        C736   1.205       .  T
C737        C738   1.206       .  T
C739        C740   1.205       .  T
C741        C742   1.207       .  T
C743        C744   1.209       .  T
C745        C746   1.209       .  T
C747        C748   1.208       .  T
C749        C750   1.200       .  T
C751        C752   1.206       .  T
C753        C754   1.206       .  T
C755        C756   1.200       .  T
C757        C758   1.208       .  T
C759        C760   1.208       .  T
C761        C762   1.208       .  T
C763        C764   1.208       .  T
C765        C766   1.205       .  T
C767        C768   1.206       .  T
C769        C770   1.205       .  T
C771        C772   1.206       .  T
C773        C774   1.208       .  T
C775        C776   1.208       .  T
C777        C778   1.209       .  T
C779        C780   1.207       .  T
C781        C782   1.207       .  T
C783        C784   1.206       .  T
C785        C786   1.207       .  T
C787        C788   1.206       .  T
C789        C790   1.208       .  T
C791        C792   1.208       .  T
C793        C794   1.215       .  T
C795        C796   1.208       .  T
C797        C798   1.208       .  T
C799        C800   1.206       .  T
C801        C802   1.207       .  T
C803        C804   1.206       .  T
C805        C806   1.205       .  T
C807        C808   1.209       .  T
C809        C810   1.208       .  T
C811        C812   1.216       .  T
C813        C814   1.216       .  T
C815        C816   1.209       .  T
C817        C818   1.216       .  T
C819        C820   1.209       .  T
C821        C822   1.206       .  T
C823        C824   1.207       .  T
C825        C826   1.207       .  T
C827        C828   1.207       .  T
C829        C830   1.208       .  T
C831        C832   1.208       .  T
C833        C834   1.208       .  T
C835        C836   1.208       .  T
C837        C838   1.205       .  T
C839        C840   1.206       .  T
C841        C842   1.206       .  T
C843        C844   1.205       .  T
C845        C846   1.209       .  T
C847        C848   1.208       .  T
C849        C850   1.208       .  T
C851        C852   1.209       .  T
C853        C854   1.209       .  T
C855        C856   1.210       .  T
C857        C858   1.209       .  T
C859        C860   1.210       .  T
C861        C862   1.205       .  T
C863        C864   1.206       .  T
C865        C866   1.206       .  T
C867        C868   1.215       .  T
C869        C870   1.216       .  T
C871        C872   1.215       .  T
C873        C874   1.205       .  T
C875        C876   1.204       .  T
C877        C878   1.205       .  T
C879        C880   1.204       .  T
C881        C882   1.210       .  T
C883        C884   1.210       .  T
C885        C886   1.210       .  T
C887        C888   1.216       .  T
C889        C890   1.206       .  T
C891        C892   1.210       .  T
C893        C894   1.206       .  T
C895        C896   1.206       .  T
C897        C898   1.206       .  T
C899        C900   1.207       .  T
C901        C902   1.214       .  T
C903        C904   1.208       .  T
C905        C906   1.214       .  T
C907        C908   1.208       .  T
C909        C910   1.206       .  T
C911        C912   1.206       .  T
C913        C914   1.206       .  T
C915        C916   1.206       .  T
C917        C918   1.208       .  T
C919        C920   1.213       .  T
C921        C922   1.213       .  T
C923        C924   1.208       .  T
C925        C926   1.215       .  T
C927        C928   1.215       .  T
C929        C930   1.215       .  T
C931        C932   1.215       .  T
C933        C934   1.214       .  T
C935        C936   1.213       .  T
C937        C938   1.213       .  T
C939        C940   1.213       .  T
C941        C942   1.215       .  T
C943        C944   1.215       .  T
C945        C946   1.215       .  T
C947        C948   1.216       .  T
C949        C950   1.215       .  T
C951        C952   1.216       .  T
C953        C954   1.215       .  T
C955        C956   1.215       .  T
C957        C958   1.215       .  T
C959        C960   1.216       .  T
C961        C962   1.216       .  T
C963        C964   1.216       .  T
C965        C966   1.215       .  T
C967        C968   1.216       .  T
C969        C970   1.215       .  T
C971        C972   1.215       .  T
C973        C974   1.207       .  T
C975        C976   1.207       .  T
C977        C978   1.207       .  T
C979        C980   1.207       .  T
C981        C982   1.207       .  T
C983        C984   1.207       .  T
C985        C986   1.208       .  T
C987        C988   1.207       .  T
C989        C990   1.209       .  T
C991        C992   1.209       .  T
C993        C994   1.209       .  T
C995        C996   1.208       .  T
C997        C998   1.208       .  T
C999       C1000   1.208       .  T
C1001      C1002   1.207       .  T
C1003      C1004   1.208       .  T
C1005      C1006   1.207       .  T
C1007      C1008   1.207       .  T
C1009      C1010   1.207       .  T
C1011      C1012   1.208       .  T
C1013      C1014   1.208       .  T
C1015      C1016   1.208       .  T
C1017      C1018   1.208       .  T
C1019      C1020   1.207       .  T
C1021      C1022   1.215       .  T
C1023      C1024   1.214       .  T
C1025      C1026   1.214       .  T
C1027      C1028   1.214       .  T
C1029      C1030   1.214       .  T
C1031      C1032   1.213       .  T
C1033      C1034   1.213       .  T
C1035      C1036   1.214       .  T
C1037      C1038   1.216       .  T
C1039      C1040   1.215       .  T
C1041      C1042   1.215       .  T
C1043      C1044   1.215       .  T
C1045      C1046   1.208       .  T
C1047      C1048   1.208       .  T
C1049      C1050   1.208       .  T
C1051      C1052   1.208       .  T
C1053      C1054   1.209       .  T
C1055      C1056   1.210       .  T
C1057      C1058   1.209       .  T
C1059      C1060   1.209       .  T
C1061      C1062   1.207       .  T
C1063      C1064   1.208       .  T
C1065      C1066   1.208       .  T
C1067      C1068   1.207       .  T
