geometry optimzed in LAMMPS
_audit_creation_date              2020-11-30 
_audit_creation_method            'lammps2cif' 
_symmetry_space_group_name_H-M    'P1' 
_symmetry_Int_Tables_number       1 
_symmetry_cell_setting            triclinic 
loop_ 
_symmetry_equiv_pos_as_xyz 
  x,y,z 
_cell_length_a                    53.44317728 
_cell_length_b                    53.24415236421709 
_cell_length_c                    53.559895338560814 
_cell_angle_alpha                 90.1352999441412 
_cell_angle_beta                  90.19084219498433 
_cell_angle_gamma                 89.93961093300673 
loop_ 
_atom_site_label 
_atom_site_type_symbol 
_atom_site_fract_x 
_atom_site_fract_y 
_atom_site_fract_z 
_atom_site_charge 
O1          O  0.21505460  0.71687514  0.74591922    -0.80100
O2          O  0.22044778  0.80156922  0.75672209    -0.80100
O3          O  0.24226087  0.73475363  0.79755034    -0.80100
O4          O  0.24358079  0.77896973  0.68997651    -0.80100
O5          O  0.21863628  0.76930692  0.79926044    -0.80200
O6          O  0.21341151  0.75480500  0.70557067    -0.80100
O7          O  0.24856709  0.81147060  0.72798943    -0.80100
O8          O  0.24590628  0.70701199  0.77165797    -0.80200
C9          C  0.22448786  0.70248479  0.76265980     1.09600
C10         C  0.23006281  0.81726396  0.74149937     1.09500
C11         C  0.22551045  0.74831561  0.80878877     1.09600
C12         C  0.22112505  0.77082488  0.68952250     1.09500
O13         O  0.25845659  0.73427955  0.68780870    -0.80100
O14         O  0.26209727  0.77955006  0.79518470    -0.80200
O15         O  0.29024100  0.71049119  0.75365994    -0.80100
O16         O  0.29359484  0.79091867  0.74360777    -0.80100
O17         O  0.26413336  0.79528761  0.77329645    -0.80200
O18         O  0.26140457  0.70040005  0.72544876    -0.80100
O19         O  0.29090046  0.75620662  0.70138026    -0.80100
O20         O  0.28922072  0.74860397  0.79490164    -0.80200
Co21       Co  0.23755308  0.72883475  0.71799588     1.51500
Co22       Co  0.23612396  0.76887305  0.76775737     1.51700
Co23       Co  0.26738232  0.73578065  0.76781556     1.51600
Co24       Co  0.26917254  0.78247723  0.71726692     1.51500
O25         O  0.25418917  0.75613464  0.73948224    -1.42000
C26         C  0.28047094  0.74256396  0.68473116     1.09500
C27         C  0.27976095  0.76705819  0.80641770     1.09600
C28         C  0.28153579  0.69542081  0.73732491     1.09500
C29         C  0.28515435  0.80216639  0.76288524     1.09500
O30         O  0.74302657  0.21008539  0.71229934    -0.80100
O31         O  0.75413772  0.20631744  0.78057413    -0.80100
O32         O  0.80631878  0.24028420  0.72845601    -0.80100
O33         O  0.69436259  0.24926619  0.77123852    -0.80100
O34         O  0.79703727  0.21009357  0.75445598    -0.80200
O35         O  0.70593149  0.21613734  0.75065683    -0.80100
O36         O  0.73111242  0.23455801  0.80016942    -0.80100
O37         O  0.76890807  0.23774675  0.69527612    -0.80200
C38         C  0.75821451  0.21629493  0.69509515     1.09600
C39         C  0.73889686  0.21202258  0.79740342     1.09500
C40         C  0.81183380  0.21946676  0.73887923     1.09600
C41         C  0.69010507  0.22703730  0.76458763     1.09500
O42         O  0.69773661  0.26711865  0.73063374    -0.80100
O43         O  0.80252757  0.25791403  0.77182507    -0.80200
O44         O  0.75200003  0.28832695  0.70784554    -0.80100
O45         O  0.75680273  0.28199548  0.79413208    -0.80100
O46         O  0.77583555  0.24668057  0.80344085    -0.80200
O47         O  0.72840675  0.25772340  0.69390737    -0.80100
O48         O  0.71717340  0.29386222  0.75646578    -0.80100
O49         O  0.79065535  0.28834272  0.74647885    -0.80200
Co50       Co  0.72096709  0.23776443  0.72404287     1.51500
Co51       Co  0.77338603  0.23418479  0.76833435     1.51700
Co52       Co  0.77655637  0.26355717  0.72195764     1.51600
Co53       Co  0.72755494  0.26486723  0.77748124     1.51500
O54         O  0.74887065  0.25113130  0.74697182    -1.42000
C55         C  0.69933506  0.28875160  0.74117314     1.09500
C56         C  0.80594283  0.27977586  0.76285059     1.09600
C57         C  0.73671219  0.27978692  0.69167738     1.09500
C58         C  0.76894675  0.26863039  0.80995384     1.09500
O59         O  0.71018848  0.73799289  0.21293577    -0.80100
O60         O  0.80538341  0.77555830  0.22766518    -0.80100
O61         O  0.72989535  0.79253665  0.24823268    -0.80100
O62         O  0.77880696  0.68964834  0.23443788    -0.80100
O63         O  0.75404993  0.77984023  0.21719122    -0.80200
O64         O  0.75155553  0.70421482  0.20778819    -0.80100
O65         O  0.79941142  0.73429482  0.22483683    -0.80100
O66         O  0.69494454  0.75703110  0.24646485    -0.80200
C67         C  0.69306652  0.75068570  0.22357584     1.09600
C68         C  0.81229725  0.75421694  0.21952743     1.09500
C69         C  0.73842396  0.79571010  0.22630320     1.09600
C70         C  0.76725977  0.68741662  0.21389122     1.09500
O71         O  0.73784120  0.68315599  0.25569906    -0.80100
O72         O  0.77330995  0.79035281  0.26442737    -0.80200
O73         O  0.71323185  0.73348989  0.29106590    -0.80100
O74         O  0.81234825  0.71016648  0.26723949    -0.80100
O75         O  0.80133028  0.75020146  0.27077779    -0.80200
O76         O  0.69839095  0.71293474  0.25838095    -0.80100
O77         O  0.76354655  0.70068435  0.28342110    -0.80100
O78         O  0.75061434  0.77291478  0.29372534    -0.80200
Co79       Co  0.72621865  0.71169284  0.23386958     1.51500
Co80       Co  0.77611091  0.76134255  0.24175330     1.51700
Co81       Co  0.72413852  0.76206914  0.26946611     1.51600
Co82       Co  0.77995437  0.72017247  0.25614002     1.51500
O83         O  0.74773244  0.73860737  0.25053172    -1.42000
C84         C  0.74911691  0.68274899  0.27671780     1.09500
C85         C  0.76501183  0.79050100  0.28646236     1.09600
C86         C  0.69770755  0.71798377  0.28155709     1.09500
C87         C  0.81712127  0.73213110  0.27515546     1.09500
C88         C  0.51568603  0.99791397  0.02137542     0.02300
C89         C  0.49647764  0.97985053  0.02102286     0.02300
C90         C  0.47763213  0.98061494  0.00240322     0.02300
C91         C  0.47773634  0.99995760  0.98430190     0.02300
C92         C  0.49727700  0.01780846  0.98447196     0.02300
C93         C  0.51659805  0.01611085  0.00242788     0.02300
C94         C  0.68299214  0.97076210  0.17653545     0.80200
N95         N  0.68730891  0.99239977  0.18991094    -0.78100
C96         C  0.67288419  0.01335454  0.18583070     0.82700
N97         N  0.65426099  0.01237213  0.16860531    -0.78000
C98         C  0.64965563  0.99128035  0.15526696     0.82800
N99         N  0.66415749  0.97075270  0.15926362    -0.79700
C100        C  0.68770111  0.16059610  0.96300153     0.80200
N101        N  0.66963034  0.14277219  0.96257263    -0.78100
C102        C  0.65739814  0.13668987  0.98370691     0.82700
N103        N  0.66362228  0.14809189  0.00544135    -0.78000
C104        C  0.68183307  0.16577436  0.00625149     0.82800
N105        N  0.69378651  0.17230035  0.98482030    -0.79700
C106        C  0.32685190  0.97884053  0.81620443     0.80200
N107        N  0.31319964  0.99957957  0.80944438    -0.78100
C108        C  0.31723873  0.02221334  0.82116008     0.82700
N109        N  0.33466963  0.02364271  0.83971124    -0.78000
C110        C  0.34843110  0.00335827  0.84636887     0.82800
N111        N  0.34423579  0.98134047  0.83452924    -0.79700
C112        C  0.51983406  0.17902158  0.82480194     0.80200
N113        N  0.51993904  0.16106594  0.84280836    -0.78100
C114        C  0.50066851  0.15838686  0.85883537     0.82700
N115        N  0.48057007  0.17368964  0.85653782    -0.78000
C116        C  0.47961671  0.19187121  0.83876788     0.82800
N117        N  0.49945690  0.19452790  0.82284192    -0.79700
C118        C  0.48095493  0.81888429  0.17947227     0.80200
N119        N  0.50271307  0.80657770  0.18484674    -0.78100
C120        C  0.52441441  0.81387241  0.17365655     0.82700
N121        N  0.52421903  0.83329591  0.15734360    -0.78000
C122        C  0.50268157  0.84553211  0.15191161     0.82800
N123        N  0.48117606  0.83807633  0.16290973    -0.79700
C124        C  0.31211623  0.82680542  0.02756004     0.80200
N125        N  0.30401056  0.81737547  0.00519841    -0.78100
C126        C  0.31561366  0.82426898  0.98359208     0.82700
N127        N  0.33525235  0.84037356  0.98464755    -0.78000
C128        C  0.34347525  0.84955225  0.00674473     0.82800
N129        N  0.33181850  0.84287798  0.02804454    -0.79700
C130        C  0.01453975  0.51827723  0.00058620     0.02300
C131        C  0.01445553  0.49946311  0.98176025     0.02300
C132        C  0.99581358  0.48049241  0.98173024     0.02300
C133        C  0.97677316  0.48085442  0.00008946     0.02300
C134        C  0.97606826  0.50042157  0.01817361     0.02300
C135        C  0.99527873  0.51883096  0.01868063     0.02300
C136        C  0.18001296  0.67371326  0.97673982     0.80200
N137        N  0.19300386  0.67979654  0.99798672    -0.78100
C138        C  0.18713400  0.66875699  0.02021900     0.82700
N139        N  0.16819896  0.65176841  0.02091627    -0.78000
C140        C  0.15478077  0.64591939  0.00022720     0.82800
N141        N  0.16088175  0.65692676  0.97822563    -0.79700
C142        C  0.17815958  0.53144174  0.82654154     0.80200
N143        N  0.15882827  0.52995921  0.84284757    -0.78100
C144        C  0.15252506  0.50806779  0.85380426     0.82700
N145        N  0.16615542  0.48732324  0.84840106    -0.78000
C146        C  0.18570755  0.48799443  0.83227341     0.82800
N147        N  0.19166368  0.51029087  0.82122145    -0.79700
C148        C  0.97824435  0.68403486  0.17422327     0.80200
N149        N  0.99962391  0.68931568  0.18705744    -0.78100
C150        C  0.02042069  0.67494278  0.18362678     0.82700
N151        N  0.01987091  0.65573620  0.16691384    -0.78000
C152        C  0.99859666  0.65034978  0.15409096     0.82800
N153        N  0.97776992  0.66444638  0.15793859    -0.79700
C154        C  0.80484757  0.46609421  0.16502191     0.80200
N155        N  0.79291547  0.48803055  0.17089475    -0.78100
C156        C  0.80068757  0.51007351  0.16054458     0.82700
N157        N  0.82094977  0.51002064  0.14534264    -0.78000
C158        C  0.83332320  0.48847402  0.13974185     0.82800
N159        N  0.82505839  0.46653151  0.14961008    -0.79700
C160        C  0.02255885  0.31479542  0.82547380     0.80200
N161        N  0.00151025  0.31156691  0.81108491    -0.78100
C162        C  0.98018574  0.32500853  0.81604684     0.82700
N163        N  0.98051683  0.34167680  0.83530772    -0.78000
C164        C  0.00127559  0.34534001  0.84935514     0.82800
N165        N  0.02228418  0.33200401  0.84430721    -0.79700
C166        C  0.82890902  0.30883202  0.03061298     0.80200
N167        N  0.81761971  0.30070603  0.00900999    -0.78100
C168        C  0.82336102  0.31182333  0.98666713     0.82700
N169        N  0.84020741  0.33090327  0.98620519    -0.78000
C170        C  0.85110433  0.33938728  0.00750194     0.82800
N171        N  0.84558683  0.32803261  0.02938913    -0.79700
C172        C  0.52491906  0.48025427  0.50047323     0.02300
C173        C  0.50797453  0.48005341  0.52074503     0.02300
C174        C  0.48893327  0.49849568  0.52186227     0.02300
C175        C  0.48483655  0.51494670  0.50153359     0.02300
C176        C  0.50077536  0.51381053  0.48051388     0.02300
C177        C  0.52188436  0.49768046  0.48067516     0.02300
C178        C  0.48222277  0.32617224  0.68790042     0.80200
N179        N  0.48330844  0.34106321  0.66730998    -0.78100
C180        C  0.50484332  0.35235558  0.66023437     0.82700
N181        N  0.52589159  0.34851085  0.67392444    -0.78000
C182        C  0.52548166  0.33400006  0.69482352     0.82800
N183        N  0.50356008  0.32268796  0.70170960    -0.79700
C184        C  0.31496113  0.66494118  0.47239553     0.80200
N185        N  0.30854566  0.67913066  0.49267988    -0.78100
C186        C  0.32081894  0.67594530  0.51481644     0.82700
N187        N  0.33945135  0.65869186  0.51654988    -0.78000
C188        C  0.34608878  0.64447708  0.49659012     0.82800
N189        N  0.33386324  0.64794693  0.47456694    -0.79700
C190        C  0.67234354  0.47169596  0.31221788     0.80200
N191        N  0.65488564  0.47317257  0.33063088    -0.78100
C192        C  0.65246715  0.49407859  0.34488094     0.82700
N193        N  0.66755406  0.51405082  0.34071748    -0.78000
C194        C  0.68500200  0.51330407  0.32232476     0.82800
N195        N  0.68730249  0.49209845  0.30799468    -0.79700
C196        C  0.48128978  0.65805028  0.30478422     0.80200
N197        N  0.50425768  0.66933076  0.30318661    -0.78100
C198        C  0.52374973  0.66077426  0.31747115     0.82700
N199        N  0.51962707  0.64127705  0.33316240    -0.78000
C200        C  0.49710172  0.62990803  0.33491390     0.82800
N201        N  0.47808987  0.63833346  0.32050879    -0.79700
C202        C  0.33892584  0.47983679  0.68583097     0.80200
N203        N  0.35746408  0.48171474  0.66862559    -0.78100
C204        C  0.36827509  0.50404250  0.66354947     0.82700
N205        N  0.36087738  0.52480556  0.67597562    -0.78000
C206        C  0.34309133  0.52360405  0.69388566     0.82800
N207        N  0.33174836  0.50102717  0.69848390    -0.79700
C208        C  0.67030487  0.30594626  0.47765699     0.80200
N209        N  0.65431816  0.32561047  0.47497599    -0.78100
C210        C  0.65178889  0.34267085  0.49350949     0.82700
N211        N  0.66549359  0.34031196  0.51455020    -0.78000
C212        C  0.68172826  0.32103539  0.51776163     0.82800
N213        N  0.68407117  0.30367145  0.49910443    -0.79700
C214        C  0.00167207  0.02238827  0.51008177     0.02300
C215        C  0.02122322  0.00447508  0.50983724     0.02300
C216        C  0.02094913  0.98517640  0.49165387     0.02300
C217        C  0.00189262  0.98389693  0.47333979     0.02300
C218        C  0.98230133  0.00188568  0.47374126     0.02300
C219        C  0.98211445  0.02132274  0.49207141     0.02300
C220        C  0.98269405  0.16688079  0.68402405     0.80200
N221        N  0.00297514  0.18220889  0.68719878    -0.78100
C222        C  0.02345039  0.17972565  0.67216110     0.82700
N223        N  0.02359279  0.16165218  0.65433799    -0.78000
C224        C  0.00362974  0.14655419  0.65080924     0.82800
N225        N  0.98323261  0.14940510  0.66545025    -0.79700
C226        C  0.19039144  0.02732828  0.66538917     0.80200
N227        N  0.17295312  0.02829959  0.64678162    -0.78100
C228        C  0.15934715  0.00757475  0.64069472     0.82700
N229        N  0.16337985  0.98577151  0.65318672    -0.78000
C230        C  0.18073072  0.98437755  0.67178399     0.82800
N231        N  0.19395297  0.00540842  0.67808047    -0.79700
C232        C  0.17631419  0.82231642  0.51632341     0.80200
N233        N  0.15820093  0.84012283  0.51461853    -0.78100
C234        C  0.15434011  0.85294513  0.49314597     0.82700
N235        N  0.16905361  0.84815394  0.47327094    -0.78000
C236        C  0.18730451  0.83054714  0.47433682     0.82800
N237        N  0.19076044  0.81726063  0.49588513    -0.79700
C238        C  0.81652105  0.17676000  0.52269304     0.80200
N239        N  0.80806582  0.18785561  0.50121571    -0.78100
C240        C  0.82018323  0.18365309  0.47911556     0.82700
N241        N  0.84053680  0.16830018  0.47893888    -0.78000
C242        C  0.84913289  0.15717244  0.50006058     0.82800
N243        N  0.83695364  0.16152987  0.52186307    -0.79700
C244        C  0.80646444  0.96519974  0.33222992     0.80200
N245        N  0.80071066  0.98728090  0.32053904    -0.78100
C246        C  0.81423110  0.00853872  0.32555422     0.82700
N247        N  0.83310626  0.00720414  0.34242295    -0.78000
C248        C  0.83913242  0.98541619  0.35384685     0.82800
N249        N  0.82570426  0.96457670  0.34881058    -0.79700
C250        C  0.98070643  0.81472197  0.31775469     0.80200
N251        N  0.98164454  0.83211142  0.33643195    -0.78100
C252        C  0.00244551  0.84653385  0.33994407     0.82700
N253        N  0.02206706  0.84359354  0.32405800    -0.78000
C254        C  0.02155208  0.82639053  0.30514270     0.82800
N255        N  0.00065971  0.81200221  0.30220367    -0.79700
O256        O  0.27451628  0.20123911  0.73169682    -0.80100
O257        O  0.24638453  0.29864137  0.71355642    -0.80100
O258        O  0.19482472  0.23091596  0.73526162    -0.80100
O259        O  0.29442586  0.28296731  0.75071257    -0.80100
O260        O  0.20636972  0.26192240  0.71000675    -0.80200
O261        O  0.29858408  0.24757771  0.73019135    -0.80100
O262        O  0.27479704  0.30069519  0.74367174    -0.80100
O263        O  0.23512188  0.20661895  0.72342763    -0.80200
C264        C  0.25501636  0.19442549  0.72013518     1.09600
C265        C  0.26591592  0.30875192  0.72268418     1.09500
C266        C  0.19157461  0.24388092  0.71557515     1.09600
C267        C  0.30747587  0.26879440  0.73616639     1.09500
O268        O  0.30326152  0.21966947  0.77091573    -0.80100
O269        O  0.19516438  0.27306683  0.76004760    -0.80200
O270        O  0.21832100  0.19437590  0.76841055    -0.80100
O271        O  0.26417717  0.30213579  0.79176858    -0.80100
O272        O  0.23308345  0.30858381  0.76452024    -0.80200
O273        O  0.25439813  0.21110284  0.78033847    -0.80100
O274        O  0.29504076  0.25859884  0.78487250    -0.80100
O275        O  0.21225527  0.24408399  0.78378438    -0.80200
Co276      Co  0.27505550  0.23137037  0.75424984     1.51500
Co277      Co  0.22229908  0.28298037  0.73690895     1.51700
Co278      Co  0.22638226  0.22594654  0.75390300     1.51600
Co279      Co  0.26181874  0.27455309  0.76905195     1.51500
O280        O  0.24699597  0.25314393  0.74291495    -1.42000
C281        C  0.30952149  0.23871767  0.78373093     1.09500
C282        C  0.19512814  0.26028030  0.77987937     1.09600
C283        C  0.23987521  0.19155020  0.77848150     1.09500
C284        C  0.24667544  0.31602321  0.78325742     1.09500
O285        O  0.73725298  0.18392861  0.27188895    -0.80100
O286        O  0.74159670  0.28379128  0.21755922    -0.80100
O287        O  0.77966129  0.23337899  0.21351376    -0.80100
O288        O  0.76834935  0.25588042  0.29342412    -0.80100
O289        O  0.75245698  0.26240365  0.20188209    -0.80200
O290        O  0.75021826  0.21993135  0.29954369    -0.80100
O291        O  0.75725602  0.29041294  0.25590974    -0.80100
O292        O  0.77083403  0.19508424  0.25096239    -0.80200
C293        C  0.75944483  0.17936588  0.26481879     1.09600
C294        C  0.75446900  0.29704715  0.23330163     1.09500
C295        C  0.77436762  0.25249205  0.20027191     1.09600
C296        C  0.76679311  0.23569932  0.30556657     1.09500
O297        O  0.70187534  0.20882963  0.30229837    -0.80100
O298        O  0.70617026  0.25399185  0.18749139    -0.80200
O299        O  0.72286744  0.18762144  0.22789993    -0.80100
O300        O  0.70411855  0.27920092  0.26574385    -0.80100
O301        O  0.70632804  0.28701542  0.22670905    -0.80200
O302        O  0.69482997  0.20787061  0.25062695    -0.80100
O303        O  0.71458620  0.24888761  0.30338671    -0.80100
O304        O  0.73184045  0.22145976  0.19131288    -0.80200
Co305      Co  0.72179886  0.21779483  0.27435238     1.51500
Co306      Co  0.72033193  0.25194729  0.22024150     1.51700
Co307      Co  0.75120151  0.21166954  0.22364473     1.51600
Co308      Co  0.73700585  0.26674384  0.27695369     1.51500
O309        O  0.73847476  0.23865755  0.24935869    -1.42000
C310        C  0.70215952  0.23032111  0.31291903     1.09500
C311        C  0.71677980  0.23486498  0.17788241     1.09600
C312        C  0.70074764  0.18968226  0.23629196     1.09500
C313        C  0.70152759  0.29469741  0.24852418     1.09500
O314        O  0.29005504  0.70233853  0.24900429    -0.80100
O315        O  0.19186246  0.72656222  0.28016675    -0.80100
O316        O  0.26710112  0.73329560  0.30427907    -0.80100
O317        O  0.22693494  0.73518979  0.19871649    -0.80100
O318        O  0.23999672  0.70786760  0.28544092    -0.80200
O319        O  0.25038492  0.70399277  0.21182532    -0.80100
O320        O  0.20110719  0.72508896  0.23977170    -0.80100
O321        O  0.30603043  0.73204714  0.27324706    -0.80200
C322        C  0.30737927  0.71031910  0.26337229     1.09600
C323        C  0.18615161  0.71998478  0.25814047     1.09500
C324        C  0.25522522  0.71255398  0.30322246     1.09600
C325        C  0.23523721  0.71313801  0.19577274     1.09500
O326        O  0.27040672  0.75137207  0.19699685    -0.80100
O327        O  0.22668825  0.75649354  0.30115791    -0.80200
O328        O  0.29396185  0.78058851  0.25341405    -0.80100
O329        O  0.19607467  0.77079613  0.21857433    -0.80100
O330        O  0.20421454  0.77046495  0.25904975    -0.80200
O331        O  0.30729377  0.74890989  0.23022119    -0.80100
O332        O  0.24729271  0.78114203  0.21445910    -0.80100
O333        O  0.25399386  0.78370472  0.28772623    -0.80200
Co334      Co  0.27758284  0.72689680  0.22403409     1.51500
Co335      Co  0.22373824  0.73737948  0.26939417     1.51700
Co336      Co  0.27841897  0.75731309  0.27772401     1.51600
Co337      Co  0.22585700  0.75481763  0.23020489     1.51500
O338        O  0.25539253  0.74356876  0.25037797    -1.42000
C339        C  0.26229476  0.77377461  0.19737916     1.09500
C340        C  0.23773050  0.77730253  0.30362452     1.09600
C341        C  0.31028783  0.77082225  0.23924936     1.09500
C342        C  0.18992801  0.77714536  0.24055671     1.09500
C343        C  0.16582271  0.79037542  0.24603053    -0.11900
C344        C  0.15095357  0.80270968  0.22780361     0.03500
C345        C  0.12674447  0.81132433  0.23395326    -0.12500
C346        C  0.11704483  0.80800542  0.25808803     0.18400
C347        C  0.13210049  0.79641753  0.27628853    -0.09500
C348        C  0.15608899  0.78798952  0.27029797    -0.02500
H349        H  0.11541287  0.82047050  0.21984341     0.04900
C350        C  0.09111442  0.81585873  0.26457606     0.20400
H351        H  0.16671947  0.77840003  0.28464308     0.10100
C352        C  0.07129202  0.79908794  0.26060267    -0.15900
C353        C  0.04797202  0.80257466  0.27224259     0.03100
C354        C  0.04419786  0.82328006  0.28868224    -0.11200
C355        C  0.06362059  0.84117541  0.29059988    -0.01200
C356        C  0.08671855  0.83764217  0.27875245    -0.06400
H357        H  0.07441002  0.78241860  0.24940401     0.06100
H358        H  0.06128253  0.85774802  0.30210537     0.09500
Br359      Br  0.12011936  0.79042951  0.30949682    -0.06100
Br360      Br  0.16270153  0.80894644  0.19455906    -0.03000
Br361      Br  0.02323443  0.77729230  0.26543241    -0.00200
Br362      Br  0.11238763  0.86234775  0.28358824    -0.04600
C363        C  0.80804895  0.03326740  0.31367498    -0.11900
C364        C  0.82219539  0.05554292  0.31831242     0.03500
C365        C  0.81439370  0.07846977  0.30830837    -0.12500
C366        C  0.79304335  0.08015939  0.29337688     0.18400
C367        C  0.77955410  0.05821948  0.28764009    -0.09500
C368        C  0.78701900  0.03509170  0.29778382    -0.02500
H369        H  0.82489248  0.09536092  0.31258775     0.04900
C370        C  0.78445872  0.10540341  0.28566278     0.20400
H371        H  0.77599842  0.01857842  0.29347960     0.10100
C372        C  0.79407780  0.11653706  0.26400298    -0.15900
C373        C  0.78713304  0.14103490  0.25712799     0.03100
C374        C  0.77051781  0.15490901  0.27235815    -0.11200
C375        C  0.76140547  0.14365976  0.29429904    -0.01200
C376        C  0.76816471  0.11924483  0.30094282    -0.06400
H377        H  0.80684779  0.10601884  0.25228751     0.06100
H378        H  0.74856141  0.15379882  0.30627379     0.09500
Br379      Br  0.75065215  0.05915233  0.26635356    -0.06100
Br380      Br  0.85244127  0.05746206  0.33789798    -0.03000
Br381      Br  0.79959773  0.15356596  0.22600724    -0.00200
Br382      Br  0.75456025  0.10547273  0.33106948    -0.04600
C383        C  0.81242289  0.19558467  0.45493634    -0.11900
C384        C  0.78722829  0.19991666  0.44780943     0.03500
C385        C  0.78154066  0.20778271  0.42329425    -0.12500
C386        C  0.80052874  0.21183725  0.40562882     0.18400
C387        C  0.82556424  0.20889428  0.41311260    -0.09500
C388        C  0.83128170  0.20076922  0.43732282    -0.02500
H389        H  0.76216119  0.21012670  0.41779393     0.04900
C390        C  0.79411183  0.21826825  0.37926066     0.20400
H391        H  0.85077573  0.19811510  0.44226608     0.10100
C392        C  0.78933311  0.24328980  0.37266002    -0.15900
C393        C  0.78266570  0.24981030  0.34808059     0.03100
C394        C  0.78081979  0.23110243  0.32929728    -0.11200
C395        C  0.78640082  0.20611949  0.33594943    -0.01200
C396        C  0.79300021  0.19967134  0.36052543    -0.06400
H397        H  0.79014773  0.25776748  0.38688473     0.06100
H398        H  0.78445392  0.19129457  0.32218609     0.09500
Br399      Br  0.85261819  0.21535724  0.39059560    -0.06100
Br400      Br  0.75965764  0.19395870  0.46983029    -0.03000
Br401      Br  0.77350268  0.28412992  0.34231822    -0.00200
Br402      Br  0.79904883  0.16496544  0.36799408    -0.04600
C403        C  0.20144128  0.82501870  0.45121250    -0.11900
C404        C  0.20781261  0.84436507  0.43425464     0.03500
C405        C  0.21592090  0.83835373  0.41015665    -0.12500
C406        C  0.21778447  0.81331074  0.40246707     0.18400
C407        C  0.21296885  0.79400678  0.41974489    -0.09500
C408        C  0.20506900  0.79993643  0.44397970    -0.02500
H409        H  0.21991382  0.85329183  0.39706035     0.04900
C410        C  0.22289031  0.80762567  0.37592300     0.20400
H411        H  0.20017588  0.78487122  0.45660847     0.10100
C412        C  0.24763865  0.80632140  0.36741430    -0.15900
C413        C  0.25291908  0.79844091  0.34297909     0.03100
C414        C  0.23316106  0.79186116  0.32665869    -0.11200
C415        C  0.20838244  0.79439356  0.33494874    -0.01200
C416        C  0.20315569  0.80236432  0.35926676    -0.06400
H417        H  0.26290719  0.81036197  0.38015361     0.06100
H418        H  0.19302951  0.78909773  0.32277970     0.09500
Br419      Br  0.21523345  0.75930317  0.41042270    -0.06100
Br420      Br  0.20565281  0.87941256  0.44269063    -0.03000
Br421      Br  0.28738799  0.79401460  0.33403065    -0.00200
Br422      Br  0.16880704  0.80464195  0.36937271    -0.04600
C423        C  0.25379749  0.17057400  0.70548172    -0.11900
C424        C  0.23571670  0.16713092  0.68643235     0.03500
C425        C  0.22875532  0.14284445  0.67889712    -0.12500
C426        C  0.24003268  0.12155806  0.68946152     0.18400
C427        C  0.26036979  0.12504306  0.70594248    -0.09500
C428        C  0.26684040  0.14931429  0.71417121    -0.02500
H429        H  0.21385156  0.14055834  0.66532412     0.04900
C430        C  0.22929127  0.09618378  0.68408953     0.20400
H431        H  0.28110006  0.15137641  0.72845391     0.10100
C432        C  0.23140053  0.08572836  0.66009193    -0.15900
C433        C  0.21956208  0.06293691  0.65398632     0.03100
C434        C  0.20504527  0.05020166  0.67192102    -0.11200
C435        C  0.20354737  0.06025284  0.69612210    -0.01200
C436        C  0.21531225  0.08306874  0.70221736    -0.06400
H437        H  0.24214365  0.09544331  0.64598675     0.06100
H438        H  0.19241104  0.05079651  0.71010347     0.09500
Br439      Br  0.27971658  0.09709782  0.71745047    -0.06100
Br440      Br  0.21994355  0.19498671  0.67002051    -0.03000
Br441      Br  0.22450230  0.04940546  0.62115585    -0.00200
Br442      Br  0.21030304  0.09639969  0.73509858    -0.04600
C443        C  0.16901308  0.23784049  0.70061038    -0.11900
C444        C  0.15243289  0.25647304  0.69166151     0.03500
C445        C  0.12793342  0.24982292  0.68468930    -0.12500
C446        C  0.11981449  0.22482892  0.68642496     0.18400
C447        C  0.13697672  0.20604506  0.69324686    -0.09500
C448        C  0.16122959  0.21261325  0.70026308    -0.02500
H449        H  0.11486054  0.26431377  0.67904668     0.04900
C450        C  0.09323631  0.21831629  0.68242210     0.20400
H451        H  0.17365871  0.19798633  0.70695608     0.10100
C452        C  0.08495833  0.21254925  0.65832421    -0.15900
C453        C  0.06147219  0.20165519  0.65441654     0.03100
C454        C  0.04592721  0.19587207  0.67506032    -0.11200
C455        C  0.05354573  0.20354101  0.69901520    -0.01200
C456        C  0.07700438  0.21470926  0.70277314    -0.06400
H457        H  0.09721653  0.21567627  0.64256132     0.06100
H458        H  0.04188248  0.19962776  0.71503384     0.09500
Br459      Br  0.12760307  0.17127692  0.69488804    -0.06100
Br460      Br  0.16113847  0.29139896  0.69110477    -0.03000
Br461      Br  0.05196226  0.19548857  0.62028098    -0.00200
Br462      Br  0.08686983  0.22344192  0.73615418    -0.04600
C463        C  0.00241916  0.96341272  0.45384337    -0.11900
C464        C  0.01296145  0.96722855  0.43003293     0.03500
C465        C  0.01278395  0.94781710  0.41216534    -0.12500
C466        C  0.00267289  0.92411060  0.41767960     0.18400
C467        C  0.99329513  0.91992109  0.44190889    -0.09500
C468        C  0.99282358  0.93953114  0.45948364    -0.02500
H469        H  0.02066234  0.95121659  0.39387587     0.04900
C470        C  0.00247657  0.90398685  0.39810700     0.20400
H471        H  0.98495413  0.93605877  0.47770801     0.10100
C472        C  0.02516414  0.89372063  0.38975267    -0.15900
C473        C  0.02576819  0.87487723  0.37128527     0.03100
C474        C  0.00317998  0.86598150  0.36034371    -0.11200
C475        C  0.98049644  0.87631933  0.36895077    -0.01200
C476        C  0.98000748  0.89511611  0.38740190    -0.06400
H477        H  0.04257813  0.90021868  0.39791384     0.06100
H478        H  0.96291812  0.87015525  0.36091169     0.09500
Br479      Br  0.98222904  0.88735191  0.45234624    -0.06100
Br480      Br  0.02871786  0.99827687  0.42138528    -0.03000
Br481      Br  0.05814893  0.86141934  0.36326826    -0.00200
Br482      Br  0.94813531  0.90890982  0.39652352    -0.04600
C483        C  0.85922759  0.98502728  0.37261290    -0.11900
C484        C  0.87775743  0.96611987  0.37314685     0.03500
C485        C  0.89745244  0.96786889  0.39031259    -0.12500
C486        C  0.89850623  0.98778940  0.40742534     0.18400
C487        C  0.87925320  0.00575147  0.40781597    -0.09500
C488        C  0.86007012  0.00454434  0.39020611    -0.02500
H489        H  0.91223031  0.95395281  0.39002276     0.04900
C490        C  0.92040373  0.99055140  0.42387090     0.20400
H491        H  0.84557303  0.01878965  0.39041944     0.10100
C492        C  0.93672820  0.01075353  0.41992184    -0.15900
C493        C  0.95701740  0.01492224  0.43585981     0.03100
C494        C  0.96105416  0.99869948  0.45620247    -0.11200
C495        C  0.94504266  0.97811200  0.45966173    -0.01200
C496        C  0.92480797  0.97394598  0.44372593    -0.06400
H497        H  0.93353927  0.02340294  0.40441052     0.06100
H498        H  0.94807907  0.96545515  0.47518215     0.09500
Br499      Br  0.87795153  0.03164818  0.43268224    -0.06100
Br500      Br  0.87810429  0.93848557  0.35006070    -0.03000
Br501      Br  0.97878944  0.04245059  0.42838645    -0.00200
Br502      Br  0.90316577  0.94608855  0.45049605    -0.04600
C503        C  0.96236156  0.04144966  0.49200989    -0.11900
C504        C  0.93751664  0.03713195  0.49988847     0.03500
C505        C  0.92021328  0.05697205  0.50039536    -0.12500
C506        C  0.92719004  0.08137730  0.49354014     0.18400
C507        C  0.95198654  0.08586476  0.48609939    -0.09500
C508        C  0.96920935  0.06602377  0.48524599    -0.02500
H509        H  0.90123469  0.05341157  0.50647979     0.04900
C510        C  0.90838001  0.10189400  0.49471621     0.20400
H511        H  0.98818447  0.06982028  0.47934152     0.10100
C512        C  0.90399148  0.11418474  0.51744068    -0.15900
C513        C  0.88581178  0.13311523  0.51947414     0.03100
C514        C  0.87055809  0.13917059  0.49865111    -0.11200
C515        C  0.87562295  0.12720884  0.47569762    -0.01200
C516        C  0.89449995  0.10906398  0.47357379    -0.06400
H517        H  0.91491685  0.10909743  0.53365742     0.06100
H518        H  0.86467535  0.13172137  0.45925510     0.09500
Br519      Br  0.96322826  0.11889550  0.47747729    -0.06100
Br520      Br  0.92625713  0.00510597  0.51149793    -0.03000
Br521      Br  0.88436497  0.15103029  0.55061759    -0.00200
Br522      Br  0.90078577  0.09464100  0.44139582    -0.04600
C523        C  0.00315838  0.12913868  0.62948680    -0.11900
C524        C  0.02334164  0.11287639  0.62435074     0.03500
C525        C  0.02252292  0.09740832  0.60326888    -0.12500
C526        C  0.00194772  0.09805472  0.58703122     0.18400
C527        C  0.98198046  0.11452502  0.59190964    -0.09500
C528        C  0.98260095  0.12979070  0.61314085    -0.02500
H529        H  0.03777088  0.08445085  0.59975748     0.04900
C530        C  0.00084432  0.07977018  0.56644204     0.20400
H531        H  0.96720039  0.14256520  0.61664425     0.10100
C532        C  0.98780422  0.05731513  0.57020355    -0.15900
C533        C  0.98814435  0.03837026  0.55217304     0.03100
C534        C  0.00132643  0.04199567  0.52976959    -0.11200
C535        C  0.01432045  0.06453908  0.52597516    -0.01200
C536        C  0.01419531  0.08340029  0.54416712    -0.06400
H537        H  0.97790511  0.05426937  0.58755724     0.06100
H538        H  0.02451838  0.06746931  0.50880476     0.09500
Br539      Br  0.95386500  0.11713736  0.56985862    -0.06100
Br540      Br  0.05166176  0.10979477  0.64624672    -0.03000
Br541      Br  0.97152133  0.00745949  0.55966483    -0.00200
Br542      Br  0.03244874  0.11370681  0.53794778    -0.04600
C543        C  0.04197314  0.00570404  0.52879142    -0.11900
C544        C  0.06437278  0.01880473  0.52406597     0.03500
C545        C  0.08361760  0.01921665  0.54200612    -0.12500
C546        C  0.08121985  0.00641066  0.56480727     0.18400
C547        C  0.05877240  0.99324787  0.56946844    -0.09500
C548        C  0.03946078  0.99310108  0.55163150    -0.02500
H549        H  0.10054804  0.02965623  0.53815580     0.04900
C550        C  0.10191855  0.00745805  0.58369755     0.20400
H551        H  0.02246577  0.98286273  0.55554456     0.10100
C552        C  0.09746965  0.01850329  0.60716113    -0.15900
C553        C  0.11615622  0.01917672  0.62564691     0.03100
C554        C  0.13986169  0.00865168  0.62096630    -0.11200
C555        C  0.14455388  0.99796638  0.59746970    -0.01200
C556        C  0.12600043  0.99760222  0.57880254    -0.06400
H557        H  0.07927567  0.02651296  0.61117760     0.06100
H558        H  0.16272852  0.98981047  0.59364418     0.09500
Br559      Br  0.05388740  0.97424485  0.59945543    -0.06100
Br560      Br  0.06951145  0.03643192  0.49335366    -0.03000
Br561      Br  0.10826204  0.03387370  0.65738206    -0.00200
Br562      Br  0.13445712  0.98291131  0.54720195    -0.04600
C563        C  0.04072443  0.96596959  0.49183556    -0.11900
C564        C  0.03804266  0.94376783  0.50570754     0.03500
C565        C  0.05692762  0.92575982  0.50508004    -0.12500
C566        C  0.07881427  0.92995207  0.49136384     0.18400
C567        C  0.08148304  0.95223312  0.47754069    -0.09500
C568        C  0.06229914  0.96995470  0.47767391    -0.02500
H569        H  0.05470483  0.90853069  0.51556474     0.04900
C570        C  0.09854920  0.91076710  0.49174758     0.20400
H571        H  0.06428924  0.98699013  0.46688572     0.10100
C572        C  0.10425207  0.89784766  0.46969787    -0.15900
C573        C  0.12231808  0.87890960  0.46952364     0.03100
C574        C  0.13497227  0.87265210  0.49193379    -0.11200
C575        C  0.12900961  0.88564095  0.51398928    -0.01200
C576        C  0.11096705  0.90452242  0.51405319    -0.06400
H577        H  0.09428752  0.90229724  0.45260918     0.06100
H578        H  0.13858627  0.88127734  0.53130542     0.09500
Br579      Br  0.11125742  0.95981365  0.45913241    -0.06100
Br580      Br  0.00915562  0.93731058  0.52588093    -0.03000
Br581      Br  0.12729124  0.86162276  0.43836871    -0.00200
Br582      Br  0.10423338  0.92144114  0.54501285    -0.04600
C583        C  0.67260816  0.28760304  0.45699918    -0.11900
C584        C  0.65137195  0.27927941  0.44350686     0.03500
C585        C  0.65438398  0.26536550  0.42156126    -0.12500
C586        C  0.67827120  0.25959452  0.41251825     0.18400
C587        C  0.69948116  0.26709371  0.42640894    -0.09500
C588        C  0.69649428  0.28059698  0.44869567    -0.02500
H589        H  0.63799022  0.25983337  0.41093870     0.04900
C590        C  0.68061464  0.24935036  0.38691411     0.20400
H591        H  0.71294919  0.28713540  0.45862172     0.10100
C592        C  0.67332427  0.26467326  0.36693666    -0.15900
C593        C  0.67797875  0.25746406  0.34233889     0.03100
C594        C  0.69034533  0.23458880  0.33736075    -0.11200
C595        C  0.69569466  0.21823368  0.35720384    -0.01200
C596        C  0.69077420  0.22542502  0.38192337    -0.06400
H597        H  0.66481863  0.28280430  0.37054239     0.06100
H598        H  0.70511223  0.20056235  0.35364094     0.09500
Br599      Br  0.73287138  0.26207668  0.41426895    -0.06100
Br600      Br  0.61770737  0.28642592  0.45386399    -0.03000
Br601      Br  0.66740527  0.27982921  0.31625723    -0.00200
Br602      Br  0.69872525  0.20238349  0.40824232    -0.04600
C603        C  0.27837593  0.33109755  0.71100570    -0.11900
C604        C  0.26778736  0.34543920  0.69130858     0.03500
C605        C  0.27763923  0.36928890  0.68555044    -0.12500
C606        C  0.29799120  0.37924297  0.69896591     0.18400
C607        C  0.30952965  0.36439289  0.71727448    -0.09500
C608        C  0.29983540  0.34078536  0.72303182    -0.02500
H609        H  0.26892817  0.38043189  0.67102243     0.04900
C610        C  0.30673658  0.40533561  0.69447257     0.20400
H611        H  0.30863098  0.33055311  0.73802596     0.10100
C612        C  0.30024012  0.42446402  0.71136200    -0.15900
C613        C  0.31008245  0.44886009  0.70919388     0.03100
C614        C  0.32680838  0.45463079  0.68950008    -0.11200
C615        C  0.33281774  0.43519130  0.67245839    -0.01200
C616        C  0.32315367  0.41091554  0.67489746    -0.06400
H617        H  0.28787329  0.42017334  0.72676400     0.06100
H618        H  0.34546713  0.43860647  0.65709611     0.09500
Br619      Br  0.33821549  0.37596344  0.73562592    -0.06100
Br620      Br  0.23940535  0.33446106  0.67216667    -0.03000
Br621      Br  0.30057250  0.47242321  0.73464994    -0.00200
Br622      Br  0.33391715  0.38561789  0.65172289    -0.04600
C623        C  0.45916431  0.66656651  0.29023990    -0.11900
C624        C  0.45062012  0.69164721  0.29072398     0.03500
C625        C  0.42637278  0.69735780  0.28230663    -0.12500
C626        C  0.41014324  0.67839283  0.27376726     0.18400
C627        C  0.41929394  0.65372914  0.27156883    -0.09500
C628        C  0.44356237  0.64803982  0.27971074    -0.02500
H629        H  0.41946659  0.71640511  0.28419489     0.04900
C630        C  0.38300743  0.68397054  0.27098855     0.20400
H631        H  0.44972739  0.62864796  0.27926784     0.10100
C632        C  0.37152950  0.68407259  0.24736965    -0.15900
C633        C  0.34614629  0.69057243  0.24462666     0.03100
C634        C  0.33175318  0.69710972  0.26582626    -0.11200
C635        C  0.34345882  0.69678413  0.28935095    -0.01200
C636        C  0.36851510  0.68978793  0.29211982    -0.06400
H637        H  0.38257952  0.67990983  0.23092718     0.06100
H638        H  0.33340501  0.70319164  0.30576225     0.09500
Br639      Br  0.39843831  0.62668278  0.26024701    -0.06100
Br640      Br  0.46943860  0.71816901  0.30606148    -0.03000
Br641      Br  0.33323700  0.69357243  0.21127671    -0.00200
Br642      Br  0.38235278  0.68875554  0.32523880    -0.04600
C643        C  0.69643726  0.32168897  0.25464238    -0.11900
C644        C  0.70673845  0.33287306  0.27647669     0.03500
C645        C  0.70209057  0.35805909  0.28209083    -0.12500
C646        C  0.68676212  0.37288450  0.26693044     0.18400
C647        C  0.67662876  0.36217968  0.24498368    -0.09500
C648        C  0.68180145  0.33688677  0.23878731    -0.02500
H649        H  0.71007707  0.36608595  0.29894091     0.04900
C650        C  0.68057980  0.39870910  0.27592878     0.20400
H651        H  0.67380113  0.32891132  0.22194729     0.10100
C652        C  0.69181071  0.41993217  0.26517267    -0.15900
C653        C  0.68917153  0.44401834  0.27596656     0.03100
C654        C  0.67519827  0.44719668  0.29829654    -0.11200
C655        C  0.66342718  0.42574941  0.30832696    -0.01200
C656        C  0.66598914  0.40197578  0.29748815    -0.06400
H657        H  0.70321856  0.41765170  0.24863573     0.06100
H658        H  0.65243196  0.42715126  0.32521100     0.09500
Br659      Br  0.65456124  0.38100243  0.22388042    -0.06100
Br660      Br  0.72795489  0.31561593  0.29978967    -0.03000
Br661      Br  0.70490875  0.47135457  0.25881386    -0.00200
Br662      Br  0.64946163  0.37422316  0.31326374    -0.04600
C663        C  0.30204842  0.66828272  0.44785580    -0.11900
C664        C  0.29800484  0.64798080  0.43112763     0.03500
C665        C  0.28747421  0.65228368  0.40749966    -0.12500
C666        C  0.28106429  0.67656762  0.39974540     0.18400
C667        C  0.28470135  0.69677334  0.41642045    -0.09500
C668        C  0.29474506  0.69249907  0.44030081    -0.02500
H669        H  0.28481452  0.63662257  0.39481094     0.04900
C670        C  0.27271077  0.68078834  0.37355259     0.20400
H671        H  0.29790643  0.70838320  0.45258233     0.10100
C672        C  0.24784217  0.68766874  0.36834210    -0.15900
C673        C  0.24064289  0.69508658  0.34418074     0.03100
C674        C  0.25845056  0.69559649  0.32479615    -0.11200
C675        C  0.28258505  0.68660334  0.32968026    -0.01200
C676        C  0.28992042  0.67947656  0.35373150    -0.06400
H677        H  0.23430125  0.68847320  0.38338112     0.06100
H678        H  0.29642598  0.68680437  0.31480530     0.09500
Br679      Br  0.27828360  0.73078747  0.40656961    -0.06100
Br680      Br  0.30586008  0.61373964  0.43926204    -0.03000
Br681      Br  0.20706883  0.70672248  0.33906776    -0.00200
Br682      Br  0.32434378  0.67089260  0.35923857    -0.04600
C683        C  0.45716963  0.31558799  0.69525095    -0.11900
C684        C  0.45369367  0.29552071  0.71231314     0.03500
C685        C  0.42934447  0.28705411  0.71790516    -0.12500
C686        C  0.40813557  0.29796862  0.70673499     0.18400
C687        C  0.41147684  0.31787495  0.68997715    -0.09500
C688        C  0.43555696  0.32631659  0.68431922    -0.02500
H689        H  0.42692438  0.27184429  0.73107891     0.04900
C690        C  0.38253311  0.28977291  0.71393307     0.20400
H691        H  0.43715005  0.34177832  0.67137487     0.10100
C692        C  0.37240274  0.29881154  0.73623569    -0.15900
C693        C  0.34802589  0.29264083  0.74344579     0.03100
C694        C  0.33281718  0.27717127  0.72793010    -0.11200
C695        C  0.34315069  0.26798868  0.70556475    -0.01200
C696        C  0.36773608  0.27417780  0.69853396    -0.06400
H697        H  0.38365699  0.31073863  0.74823656     0.06100
H698        H  0.33218290  0.25575692  0.69362674     0.09500
Br699      Br  0.38350553  0.33486368  0.67503491    -0.06100
Br700      Br  0.48091052  0.27814153  0.72816170    -0.03000
Br701      Br  0.33798445  0.30479026  0.77576246    -0.00200
Br702      Br  0.38066091  0.26053237  0.66804751    -0.04600
C703        C  0.36652756  0.62540800  0.49847681    -0.11900
C704        C  0.37393937  0.61423051  0.52139685     0.03500
C705        C  0.39313870  0.59627464  0.52174902    -0.12500
C706        C  0.40526137  0.58896466  0.49976122     0.18400
C707        C  0.39808776  0.59995196  0.47700513    -0.09500
C708        C  0.37890917  0.61788921  0.47648426    -0.02500
H709        H  0.39855143  0.58775861  0.53931682     0.04900
C710        C  0.42543615  0.56991493  0.50095996     0.20400
H711        H  0.37386681  0.62616642  0.45871114     0.10100
C712        C  0.42062236  0.54519067  0.49316941    -0.15900
C713        C  0.43955490  0.52694359  0.49365781     0.03100
C714        C  0.46372133  0.53332941  0.50212581    -0.11200
C715        C  0.46828470  0.55795447  0.51033351    -0.01200
C716        C  0.44948004  0.57620681  0.50967361    -0.06400
H717        H  0.40213510  0.54015762  0.48649467     0.06100
H718        H  0.48681766  0.56325943  0.51652957     0.09500
Br719      Br  0.41452786  0.59148309  0.44629711    -0.06100
Br720      Br  0.35821058  0.62116536  0.55290292    -0.03000
Br721      Br  0.43166132  0.49375472  0.48224004    -0.00200
Br722      Br  0.45780642  0.60977885  0.51969350    -0.04600
C723        C  0.47284525  0.50027224  0.54419005    -0.11900
C724        C  0.47745100  0.51830686  0.56294788     0.03500
C725        C  0.46146533  0.51994234  0.58346437    -0.12500
C726        C  0.44122747  0.50345468  0.58569952     0.18400
C727        C  0.43699512  0.48505810  0.56730881    -0.09500
C728        C  0.45260709  0.48377310  0.54656120    -0.02500
H729        H  0.46482922  0.53401618  0.59772279     0.04900
C730        C  0.42419319  0.50581328  0.60698600     0.20400
H731        H  0.44898658  0.46983230  0.53226329     0.10100
C732        C  0.40242663  0.52022218  0.60422640    -0.15900
C733        C  0.38422013  0.52035975  0.62285070     0.03100
C734        C  0.38773450  0.50573583  0.64445027    -0.11200
C735        C  0.40986257  0.49188737  0.64749118    -0.01200
C736        C  0.42821316  0.49203555  0.62898213    -0.06400
H737        H  0.39924704  0.53068809  0.58717512     0.06100
H738        H  0.41274765  0.48078725  0.66418648     0.09500
Br739      Br  0.41025215  0.46122213  0.57001164    -0.06100
Br740      Br  0.50536328  0.54086312  0.56156323    -0.03000
Br741      Br  0.35405933  0.53906922  0.61699277    -0.00200
Br742      Br  0.45807024  0.47260687  0.63394944    -0.04600
C743        C  0.49393351  0.60888646  0.35285804    -0.11900
C744        C  0.47039754  0.60096770  0.36220828     0.03500
C745        C  0.46947247  0.58335458  0.38158268    -0.12500
C746        C  0.49148488  0.57350839  0.39184960     0.18400
C747        C  0.51470326  0.58010891  0.38167103    -0.09500
C748        C  0.51576782  0.59745214  0.36231999    -0.02500
H749        H  0.45156357  0.57821114  0.38949374     0.04900
C750        C  0.49042110  0.55871025  0.41492560     0.20400
H751        H  0.53402126  0.60258866  0.35526203     0.10100
C752        C  0.48533313  0.53293512  0.41387283    -0.15900
C753        C  0.48740778  0.51816718  0.43536021     0.03100
C754        C  0.49523307  0.52922516  0.45805880    -0.11200
C755        C  0.49898394  0.55523608  0.45913934    -0.01200
C756        C  0.49641652  0.57000423  0.43790425    -0.06400
H757        H  0.48032388  0.52424418  0.39624676     0.06100
H758        H  0.50494443  0.56404644  0.47634300     0.09500
Br759      Br  0.54562322  0.56715130  0.39475850    -0.06100
Br760      Br  0.43880326  0.61427479  0.35120778    -0.03000
Br761      Br  0.47926651  0.48317708  0.43276281    -0.00200
Br762      Br  0.50225014  0.60543803  0.44094880    -0.04600
C763        C  0.63306370  0.49525133  0.36432419    -0.11900
C764        C  0.63916027  0.49327312  0.38982921     0.03500
C765        C  0.62020843  0.49421567  0.40780210    -0.12500
C766        C  0.59505251  0.49697472  0.40072040     0.18400
C767        C  0.58897412  0.49914872  0.37518424    -0.09500
C768        C  0.60794470  0.49812751  0.35721498    -0.02500
H769        H  0.62505781  0.49241856  0.42737747     0.04900
C770        C  0.57556483  0.49739623  0.42032213     0.20400
H771        H  0.60310148  0.49974190  0.33762386     0.10100
C772        C  0.57383455  0.51824632  0.43624980    -0.15900
C773        C  0.55646434  0.51881422  0.45576711     0.03100
C774        C  0.54022365  0.49822965  0.45954195    -0.11200
C775        C  0.54202238  0.47742423  0.44343758    -0.01200
C776        C  0.55963126  0.47675463  0.42418788    -0.06400
H777        H  0.58636098  0.53401386  0.43370414     0.06100
H778        H  0.52987921  0.46140777  0.44606395     0.09500
Br779      Br  0.55515811  0.50398528  0.36403739    -0.06100
Br780      Br  0.67291906  0.48809869  0.40087312    -0.03000
Br781      Br  0.55722076  0.54742701  0.47762341    -0.00200
Br782      Br  0.56211756  0.44671573  0.40450930    -0.04600
C783        C  0.54421617  0.46043455  0.49859275    -0.11900
C784        C  0.56983258  0.46535934  0.50257738     0.03500
C785        C  0.58729341  0.44614799  0.49934961    -0.12500
C786        C  0.57955682  0.42209235  0.49213983     0.18400
C787        C  0.55404607  0.41719871  0.48801443    -0.09500
C788        C  0.53659737  0.43634977  0.49121524    -0.02500
H789        H  0.60692232  0.44981854  0.50292488     0.04900
C790        C  0.59796578  0.40168949  0.49146508     0.20400
H791        H  0.51700369  0.43257585  0.48758622     0.10100
C792        C  0.59735955  0.38389300  0.51060084    -0.15900
C793        C  0.61447737  0.36423449  0.51110890     0.03100
C794        C  0.63264392  0.36225778  0.49220940    -0.11200
C795        C  0.63307792  0.37985633  0.47277500    -0.01200
C796        C  0.61596899  0.39976281  0.47243841    -0.06400
H797        H  0.58344480  0.38534106  0.52520618     0.06100
H798        H  0.64708474  0.37845748  0.45825931     0.09500
Br799      Br  0.54229895  0.38475367  0.47769348    -0.06100
Br800      Br  0.58208624  0.49752440  0.51289159    -0.03000
Br801      Br  0.61148168  0.34008107  0.53752230    -0.00200
Br802      Br  0.61776310  0.42381108  0.44587611    -0.04600
C803        C  0.50897051  0.45951766  0.53988152    -0.11900
C804        C  0.52487216  0.46059726  0.56092156     0.03500
C805        C  0.52461184  0.44123818  0.57861202    -0.12500
C806        C  0.50846169  0.42065959  0.57599194     0.18400
C807        C  0.49263114  0.41941487  0.55495214    -0.09500
C808        C  0.49317035  0.43858711  0.53702514    -0.02500
H809        H  0.53662894  0.44256071  0.59489341     0.04900
C810        C  0.50711942  0.40187698  0.59642780     0.20400
H811        H  0.48093382  0.43735414  0.52090747     0.10100
C812        C  0.48704463  0.40301452  0.61315518    -0.15900
C813        C  0.48594998  0.38710585  0.63391650     0.03100
C814        C  0.50517915  0.36934036  0.63822772    -0.11200
C815        C  0.52527253  0.36817220  0.62135787    -0.01200
C816        C  0.52630357  0.38418013  0.60057313    -0.06400
H817        H  0.47245495  0.41689089  0.61040061     0.06100
H818        H  0.54016838  0.35466630  0.62427310     0.09500
Br819      Br  0.46995437  0.39194318  0.55007450    -0.06100
Br820      Br  0.54658838  0.48838829  0.56713199    -0.03000
Br821      Br  0.45889427  0.39239618  0.65682932    -0.00200
Br822      Br  0.55400577  0.38105534  0.57810022    -0.04600
C823        C  0.82416063  0.29737679  0.05578372    -0.11900
C824        C  0.80073509  0.28768816  0.06332711     0.03500
C825        C  0.79687484  0.28068757  0.08834508    -0.12500
C826        C  0.81595691  0.28285329  0.10636662     0.18400
C827        C  0.83962168  0.29130283  0.09873271    -0.09500
C828        C  0.84350268  0.29847912  0.07383617    -0.02500
H829        H  0.77857062  0.27408722  0.09396806     0.04900
C830        C  0.81010996  0.27755297  0.13310069     0.20400
H831        H  0.86177633  0.30554802  0.06872559     0.10100
C832        C  0.81873034  0.25546883  0.14464783    -0.15900
C833        C  0.80990405  0.24819122  0.16835814     0.03100
C834        C  0.79154611  0.26287654  0.18069523    -0.11200
C835        C  0.78516027  0.28623335  0.16999453    -0.01200
C836        C  0.79427866  0.29360774  0.14668758    -0.06400
H837        H  0.83152645  0.24326719  0.13470526     0.06100
H838        H  0.77158136  0.29828662  0.17892010     0.09500
Br839      Br  0.86680232  0.29474741  0.12195573    -0.06100
Br840      Br  0.77260517  0.28510837  0.04125170    -0.03000
Br841      Br  0.82244912  0.21723816  0.18174486    -0.00200
Br842      Br  0.78363554  0.32545416  0.13366636    -0.04600
C843        C  0.17288573  0.26383922  0.79626387    -0.11900
C844        C  0.15516601  0.24449811  0.79986267     0.03500
C845        C  0.13027800  0.25041315  0.80639779    -0.12500
C846        C  0.12260422  0.27549604  0.80953495     0.18400
C847        C  0.14080985  0.29455132  0.80816043    -0.09500
C848        C  0.16549989  0.28869415  0.80145637    -0.02500
H849        H  0.11659428  0.23549072  0.80775116     0.04900
C850        C  0.09552825  0.28194060  0.81268236     0.20400
H851        H  0.17863532  0.30390833  0.79859002     0.10100
C852        C  0.08444320  0.28051342  0.83633138    -0.15900
C853        C  0.06010443  0.28969626  0.84042688     0.03100
C854        C  0.04621577  0.30060455  0.82065253    -0.11200
C855        C  0.05671549  0.30046025  0.79663906    -0.01200
C856        C  0.08112801  0.29136811  0.79259989    -0.06400
H857        H  0.09505863  0.27296490  0.85186399     0.06100
H858        H  0.04643455  0.30862691  0.78119561     0.09500
Br859      Br  0.13235705  0.32913491  0.81377907    -0.06100
Br860      Br  0.16317975  0.21006180  0.79328102    -0.03000
Br861      Br  0.04658386  0.28660286  0.87344337    -0.00200
Br862      Br  0.09458603  0.29319726  0.75949909    -0.04600
C863        C  0.76378907  0.32168418  0.22465616    -0.11900
C864        C  0.78820153  0.33062331  0.22910223     0.03500
C865        C  0.79520970  0.35446051  0.22019008    -0.12500
C866        C  0.77799563  0.36967224  0.20717386     0.18400
C867        C  0.75357876  0.36069428  0.20310517    -0.09500
C868        C  0.74683557  0.33691709  0.21152123    -0.02500
H869        H  0.81415883  0.36103653  0.22317130     0.04900
C870        C  0.78565916  0.39439953  0.19693592     0.20400
H871        H  0.72793711  0.33044188  0.20806731     0.10100
C872        C  0.78632285  0.39752597  0.17095233    -0.15900
C873        C  0.79127618  0.42098710  0.16037023     0.03100
C874        C  0.79673118  0.44180374  0.17579408    -0.11200
C875        C  0.79577611  0.43879561  0.20183343    -0.01200
C876        C  0.79011157  0.41536389  0.21243900    -0.06400
H877        H  0.78207276  0.38176788  0.15882934     0.06100
H878        H  0.79961610  0.45465740  0.21395009     0.09500
Br879      Br  0.72832115  0.38056149  0.18692537    -0.06100
Br880      Br  0.81280382  0.31037588  0.24568726    -0.03000
Br881      Br  0.78751435  0.42407813  0.12490997    -0.00200
Br882      Br  0.78741783  0.41306460  0.24804884    -0.04600
C883        C  0.04362441  0.68013562  0.19774714    -0.11900
C884        C  0.05603898  0.66115307  0.21136403     0.03500
C885        C  0.07864999  0.66646418  0.22357763    -0.12500
C886        C  0.08939777  0.69044976  0.22224387     0.18400
C887        C  0.07719731  0.70927457  0.20819940    -0.09500
C888        C  0.05426128  0.70415003  0.19655537    -0.02500
H889        H  0.08794021  0.65179965  0.23411156     0.04900
C890        C  0.11383455  0.69522776  0.23460778     0.20400
H891        H  0.04518533  0.71870160  0.18568202     0.10100
C892        C  0.13520647  0.68227462  0.22638488    -0.15900
C893        C  0.15899737  0.68851393  0.23556875     0.03100
C894        C  0.16165890  0.70828824  0.25286677    -0.11200
C895        C  0.14010012  0.71958381  0.26277272    -0.01200
C896        C  0.11629682  0.71301974  0.25399133    -0.06400
H897        H  0.13345874  0.66775961  0.21228045     0.06100
H898        H  0.14180010  0.73438622  0.27657921     0.09500
Br899      Br  0.09201606  0.74163170  0.20265043    -0.06100
Br900      Br  0.04253309  0.62791378  0.21455232    -0.03000
Br901      Br  0.18721289  0.66906729  0.22472595    -0.00200
Br902      Br  0.08775362  0.72886756  0.26898044    -0.04600
C903        C  0.19901298  0.46386348  0.82663866    -0.11900
C904        C  0.22304079  0.46214594  0.81560207     0.03500
C905        C  0.23346007  0.43844031  0.81035262    -0.12500
C906        C  0.22063626  0.41617453  0.81613977     0.18400
C907        C  0.19735454  0.41784769  0.82814253    -0.09500
C908        C  0.18681786  0.44130299  0.83308551    -0.02500
H909        H  0.25159853  0.43734056  0.80143779     0.04900
C910        C  0.23056161  0.39142558  0.80788201     0.20400
H911        H  0.16852997  0.44166237  0.84171657     0.10100
C912        C  0.23695616  0.37298055  0.82558937    -0.15900
C913        C  0.24287918  0.34834358  0.81817128     0.03100
C914        C  0.24268780  0.34194171  0.79261758    -0.11200
C915        C  0.23729581  0.36071633  0.77497867    -0.01200
C916        C  0.23128345  0.38516818  0.78234089    -0.06400
H917        H  0.23631863  0.37751908  0.84530418     0.06100
H918        H  0.23728411  0.35621915  0.75522840     0.09500
Br919      Br  0.17830494  0.38867389  0.83711408    -0.06100
Br920      Br  0.24334316  0.49083237  0.80813459    -0.03000
Br921      Br  0.24859821  0.32374831  0.84365683    -0.00200
Br922      Br  0.22241143  0.40876741  0.75672732    -0.04600
C923        C  0.22984884  0.70076547  0.17143468    -0.11900
C924        C  0.20621618  0.70371652  0.15976201     0.03500
C925        C  0.20308050  0.69773562  0.13449013    -0.12500
C926        C  0.22318938  0.68927798  0.12004051     0.18400
C927        C  0.24669488  0.68587425  0.13155733    -0.09500
C928        C  0.24982352  0.69135060  0.15711117    -0.02500
H929        H  0.18485923  0.70016348  0.12588465     0.04900
C930        C  0.21857419  0.68343701  0.09324690     0.20400
H931        H  0.26830119  0.68983996  0.16535637     0.10100
C932        C  0.21786296  0.70285916  0.07550519    -0.15900
C933        C  0.20928708  0.69846313  0.05097330     0.03100
C934        C  0.20085491  0.67423270  0.04398617    -0.11200
C935        C  0.20294326  0.65469602  0.06158275    -0.01200
C936        C  0.21161548  0.65910719  0.08586399    -0.06400
H937        H  0.22304284  0.72173429  0.08106280     0.06100
H938        H  0.19691131  0.63588539  0.05672146     0.09500
Br939      Br  0.27523365  0.67530795  0.11266682    -0.06100
Br940      Br  0.17753072  0.71679747  0.17699338    -0.03000
Br941      Br  0.20747093  0.72677017  0.02892951    -0.00200
Br942      Br  0.21194500  0.63162238  0.10894977    -0.04600
C943        C  0.03451086  0.49921778  0.96252831    -0.11900
C944        C  0.02963902  0.50574116  0.93749025     0.03500
C945        C  0.04903033  0.50544176  0.92009609    -0.12500
C946        C  0.07362978  0.49980478  0.92736602     0.18400
C947        C  0.07873535  0.49438949  0.95260076    -0.09500
C948        C  0.05910991  0.49330758  0.96970306    -0.02500
H949        H  0.04503077  0.51034024  0.90086651     0.04900
C950        C  0.09372646  0.50156191  0.90857731     0.20400
H951        H  0.06319125  0.48848239  0.98889769     0.10100
C952        C  0.09741867  0.52447562  0.89638056    -0.15900
C953        C  0.11573290  0.52715103  0.87802678     0.03100
C954        C  0.13154382  0.50653976  0.87202805    -0.11200
C955        C  0.12720753  0.48340023  0.88402669    -0.01200
C956        C  0.10832457  0.48068893  0.90175934    -0.06400
H957        H  0.08570278  0.54042780  0.90105186     0.06100
H958        H  0.13836514  0.46703715  0.87950371     0.09500
Br959      Br  0.11222706  0.49071158  0.96516694    -0.06100
Br960      Br  0.99745640  0.51698926  0.92622593    -0.03000
Br961      Br  0.11649657  0.55932386  0.86182032    -0.00200
Br962      Br  0.10234016  0.44771715  0.91490270    -0.04600
C963        C  0.03513838  0.53726772  0.00158014    -0.11900
C964        C  0.03380542  0.55989628  0.98805727     0.03500
C965        C  0.05377554  0.57684946  0.98874805    -0.12500
C966        C  0.07551517  0.57152603  0.00244974     0.18400
C967        C  0.07697380  0.54894836  0.01600064    -0.09500
C968        C  0.05675236  0.53219521  0.01574620    -0.02500
H969        H  0.05248364  0.59419324  0.97827947     0.04900
C970        C  0.09640071  0.58980563  0.00214294     0.20400
H971        H  0.05812694  0.51482227  0.02613923     0.10100
C972        C  0.10075671  0.60500932  0.02309531    -0.15900
C973        C  0.11938265  0.62353211  0.02290995     0.03100
C974        C  0.13436042  0.62693123  0.00139185    -0.11200
C975        C  0.12989453  0.61148051  0.98050194    -0.01200
C976        C  0.11115101  0.59313790  0.98071889    -0.06400
H977        H  0.08924603  0.60276085  0.03952965     0.06100
H978        H  0.14125102  0.61335818  0.96397337     0.09500
Br979      Br  0.10670079  0.53969071  0.03390262    -0.06100
Br980      Br  0.00545575  0.56850770  0.96798957    -0.03000
Br981      Br  0.12191753  0.64449002  0.05206891    -0.00200
Br982      Br  0.10668376  0.57262090  0.95152203    -0.04600
C983        C  0.99611107  0.53794725  0.03905583    -0.11900
C984        C  0.98051190  0.55931821  0.03896859     0.03500
C985        C  0.98173493  0.57657555  0.05860097    -0.12500
C986        C  0.99852146  0.57313794  0.07839456     0.18400
C987        C  0.01413213  0.55184245  0.07864658    -0.09500
C988        C  0.01280070  0.53442477  0.05907492    -0.02500
H989        H  0.96971314  0.59297568  0.05830469     0.04900
C990        C  0.99935024  0.59218042  0.09843870     0.20400
H991        H  0.02467511  0.51793577  0.05954917     0.10100
C992        C  0.97986928  0.59314292  0.11588092    -0.15900
C993        C  0.97929309  0.61185063  0.13427525     0.03100
C994        C  0.99855663  0.62992558  0.13541138    -0.11200
C995        C  0.01817142  0.62872579  0.11806019    -0.01200
C996        C  0.01850101  0.61025769  0.09945724    -0.06400
H997        H  0.96500979  0.57932744  0.11509100     0.06100
H998        H  0.03293220  0.64265634  0.11853610     0.09500
Br999      Br  0.03710331  0.54564290  0.10551780    -0.06100
Br1000     Br  0.95763591  0.56651317  0.01246562    -0.03000
Br1001     Br  0.95242060  0.61109202  0.15794947    -0.00200
Br1002     Br  0.04465604  0.61120283  0.07502201    -0.04600
C1003       C  0.95621304  0.50055462  0.03774368    -0.11900
C1004       C  0.93088445  0.50568153  0.03202364     0.03500
C1005       C  0.91276327  0.50402956  0.05065553    -0.12500
C1006       C  0.91938994  0.49820382  0.07525327     0.18400
C1007       C  0.94469168  0.49439245  0.08139239    -0.09500
C1008       C  0.96282687  0.49520758  0.06261737    -0.02500
H1009       H  0.89331054  0.50741568  0.04596578     0.04900
C1010       C  0.89923523  0.49517221  0.09372867     0.20400
H1011       H  0.98216526  0.49146036  0.06741412     0.10100
C1012       C  0.88664061  0.47219536  0.09483631    -0.15900
C1013       C  0.86542945  0.46921608  0.10978146     0.03100
C1014       C  0.85636696  0.48969465  0.12413127    -0.11200
C1015       C  0.86959406  0.51260305  0.12322356    -0.01200
C1016       C  0.89074918  0.51544225  0.10818580    -0.06400
H1017       H  0.89295566  0.45665726  0.08334793     0.06100
H1018       H  0.86338100  0.52858860  0.13410957     0.09500
Br1019     Br  0.95518400  0.48813016  0.11506654    -0.06100
Br1020     Br  0.91965601  0.51618229  0.99965273    -0.03000
Br1021     Br  0.84934028  0.43716235  0.10772274    -0.00200
Br1022     Br  0.90703507  0.54752508  0.10724047    -0.04600
C1023       C  0.95844084  0.45976212  0.00120791    -0.11900
C1024       C  0.96149717  0.43974991  0.01811328     0.03500
C1025       C  0.94410623  0.42009401  0.01843541    -0.12500
C1026       C  0.92343278  0.42012219  0.00220563     0.18400
C1027       C  0.92009667  0.44036942  0.98569205    -0.09500
C1028       C  0.93782183  0.45958694  0.98492692    -0.02500
H1029       H  0.94669767  0.40471445  0.03139933     0.04900
C1030       C  0.90515862  0.39931095  0.00336711     0.20400
H1031       H  0.93522903  0.47468852  0.97173598     0.10100
C1032       C  0.89028041  0.39679917  0.02468860    -0.15900
C1033       C  0.87250434  0.37761289  0.02649016     0.03100
C1034       C  0.86947800  0.36027032  0.00661268    -0.11200
C1035       C  0.88451846  0.36289548  0.98527155    -0.01200
C1036       C  0.90234088  0.38204363  0.98361081    -0.06400
H1037       H  0.89226485  0.41012699  0.03989301     0.06100
H1038       H  0.88274359  0.34971222  0.96993026     0.09500
Br1039     Br  0.89095421  0.44341270  0.96487217    -0.06100
Br1040     Br  0.98922617  0.43825635  0.04084708    -0.03000
Br1041     Br  0.85213319  0.37744973  0.05598645    -0.00200
Br1042     Br  0.92299177  0.38330004  0.95439113    -0.04600
C1043       C  0.00088661  0.36415812  0.86961715    -0.11900
C1044       C  0.98378860  0.36232168  0.88951581     0.03500
C1045       C  0.98289434  0.38118804  0.90775242    -0.12500
C1046       C  0.99853481  0.40223816  0.90625672     0.18400
C1047       C  0.01547736  0.40421145  0.88628952    -0.09500
C1048       C  0.01676661  0.38508893  0.86830395    -0.02500
H1049       H  0.96995571  0.37946331  0.92314448     0.04900
C1050       C  0.99717540  0.42186103  0.92580253     0.20400
H1051       H  0.02968502  0.38690623  0.85286863     0.10100
C1052       C  0.01429005  0.42136655  0.94569021    -0.15900
C1053       C  0.01389327  0.43998591  0.96421329     0.03100
C1054       C  0.99646438  0.45984280  0.96273072    -0.11200
C1055       C  0.97916083  0.46001593  0.94292266    -0.01200
C1056       C  0.97922982  0.44115216  0.92471171    -0.02200
H1057       H  0.02794848  0.40636109  0.94683589     0.06100
H1058       H  0.96561896  0.47504436  0.94145800     0.09500
Br1059     Br  0.03643264  0.43318438  0.88250222    -0.06100
Br1060     Br  0.96187749  0.33402243  0.89299879    -0.03000
Br1061     Br  0.03701997  0.43694493  0.99143975    -0.00200
Br1062     Br  0.95465407  0.44259652  0.89858211    -0.04600
C1063       C  0.29898274  0.82169328  0.05138007    -0.11900
C1064       C  0.28883367  0.79802227  0.05747715     0.03500
C1065       C  0.27910412  0.79397544  0.08142555    -0.12500
C1066       C  0.27955569  0.81305278  0.09958783     0.18400
C1067       C  0.28923412  0.83669126  0.09343096    -0.09500
C1068       C  0.29850375  0.84093954  0.06948774    -0.02500
H1069       H  0.27253398  0.77540760  0.08640672     0.04900
C1070       C  0.27514851  0.80639961  0.12591598     0.20400
H1071       H  0.30625772  0.85924402  0.06532771     0.10100
C1072       C  0.29474387  0.79482815  0.13866623    -0.15900
C1073       C  0.29153463  0.78583195  0.16276243     0.03100
C1074       C  0.26835725  0.78916882  0.17523466    -0.11200
C1075       C  0.24910954  0.80231209  0.16290073    -0.01200
C1076       C  0.25226341  0.81057670  0.13818578    -0.06400
H1077       H  0.31242784  0.79171861  0.12927256     0.06100
H1078       H  0.23097779  0.80433841  0.17166965     0.09500
Br1079     Br  0.29240419  0.86289488  0.11790829    -0.06100
Br1080     Br  0.29054443  0.76969501  0.03531769    -0.03000
Br1081     Br  0.31931652  0.76716216  0.17587908    -0.00200
Br1082     Br  0.22445908  0.82553684  0.12114225    -0.04600
C1083       C  0.45670469  0.81179327  0.19068106    -0.11900
C1084       C  0.45368110  0.80765634  0.21648509     0.03500
C1085       C  0.42967319  0.80379900  0.22622765    -0.12500
C1086       C  0.40848502  0.80334430  0.21059313     0.18400
C1087       C  0.41158180  0.80722939  0.18478283    -0.09500
C1088       C  0.43543811  0.81163179  0.17515899    -0.02500
H1089       H  0.42752012  0.80083778  0.24611086     0.04900
C1090       C  0.38368980  0.79681429  0.22113435     0.20400
H1091       H  0.43741447  0.81479874  0.15528179     0.10100
C1092       C  0.36337219  0.81363398  0.21915751    -0.15900
C1093       C  0.33913201  0.80636103  0.22627631     0.03100
C1094       C  0.33523382  0.78213720  0.23594434    -0.11200
C1095       C  0.35583530  0.76608972  0.23928414    -0.01200
C1096       C  0.37973068  0.77301680  0.23176519    -0.06400
H1097       H  0.36619141  0.83200777  0.21100357     0.06100
H1098       H  0.35309496  0.74735154  0.24662999     0.09500
Br1099     Br  0.38412668  0.80556758  0.16159437    -0.06100
Br1100     Br  0.48128607  0.80832230  0.23945542    -0.03000
Br1101     Br  0.31175728  0.82873776  0.21977569    -0.00200
Br1102     Br  0.40557321  0.74800593  0.23401693    -0.04600
C1103       C  0.45574078  0.20639573  0.83587692    -0.11900
C1104       C  0.45370784  0.22966715  0.82326518     0.03500
C1105       C  0.42997790  0.24000362  0.81833445    -0.12500
C1106       C  0.40807515  0.22822936  0.82674272     0.18400
C1107       C  0.41018992  0.20641800  0.84128914    -0.09500
C1108       C  0.43367529  0.19574962  0.84565265    -0.02500
H1109       H  0.42854270  0.25694177  0.80724588     0.04900
C1110       C  0.38358432  0.23510810  0.81563244     0.20400
H1111       H  0.43435775  0.17823115  0.85585746     0.10100
C1112       C  0.37905691  0.22694895  0.79126584    -0.15900
C1113       C  0.35529568  0.22853246  0.78070087     0.03100
C1114       C  0.33511871  0.23875460  0.79455687    -0.11200
C1115       C  0.33997508  0.24856070  0.81848577    -0.01200
C1116       C  0.36403537  0.24658848  0.82916780    -0.06400
H1117       H  0.39401566  0.21828077  0.78066354     0.06100
H1118       H  0.32493878  0.25693198  0.82916788     0.09500
Br1119     Br  0.38129930  0.18893437  0.85346588    -0.06100
Br1120     Br  0.48214747  0.24908224  0.81343047    -0.03000
Br1121     Br  0.35229946  0.21624467  0.74701956    -0.00200
Br1122     Br  0.36939772  0.25922196  0.86227243    -0.04600
C1123       C  0.30272105  0.04551902  0.81503375    -0.11900
C1124       C  0.29595533  0.05249281  0.79045060     0.03500
C1125       C  0.28425986  0.07575870  0.78603151    -0.12500
C1126       C  0.27985356  0.09297062  0.80540385     0.18400
C1127       C  0.28640840  0.08605139  0.82990487    -0.09500
C1128       C  0.29750895  0.06261418  0.83451776    -0.02500
H1129       H  0.27932303  0.08088413  0.76707508     0.04900
C1130       C  0.26936850  0.11834218  0.79962744     0.20400
H1131       H  0.30252764  0.05792036  0.85358781     0.10100
C1132       C  0.24373208  0.12114097  0.79459279    -0.15900
C1133       C  0.23333957  0.14474724  0.78877197     0.03100
C1134       C  0.24879104  0.16639253  0.78767047    -0.11200
C1135       C  0.27443811  0.16337489  0.79322750    -0.01200
C1136       C  0.28471375  0.13981041  0.79895335    -0.06400
H1137       H  0.23168655  0.10480884  0.79522816     0.06100
H1138       H  0.28691451  0.17931350  0.79246693     0.09500
Br1139     Br  0.28078805  0.10819576  0.85762848    -0.06100
Br1140     Br  0.30476681  0.03277305  0.76183076    -0.03000
Br1141     Br  0.19786133  0.14575706  0.78318111    -0.00200
Br1142     Br  0.32013023  0.13774214  0.80467346    -0.04600
C1143       C  0.68833273  0.17747882  0.03045778    -0.11900
C1144       C  0.68846253  0.16326503  0.05271294     0.03500
C1145       C  0.69234039  0.17515667  0.07561703    -0.12500
C1146       C  0.69671776  0.20104715  0.07699161     0.18400
C1147       C  0.69786106  0.21512152  0.05478353    -0.09500
C1148       C  0.69347797  0.20333427  0.03172969    -0.02500
H1149       H  0.69241775  0.16402059  0.09253228     0.04900
C1150       C  0.70236957  0.21206138  0.10175713     0.20400
H1151       H  0.69385379  0.21443774  0.01481067     0.10100
C1152       C  0.72413870  0.20417310  0.11394170    -0.15900
C1153       C  0.72944420  0.21168294  0.13834303     0.03100
C1154       C  0.71266310  0.22777303  0.15128032    -0.11200
C1155       C  0.69106456  0.23619558  0.13869898    -0.01200
C1156       C  0.68568722  0.22822028  0.11426201    -0.06400
H1157       H  0.73695937  0.19160565  0.10445084     0.06100
H1158       H  0.67780348  0.24824567  0.14820290     0.09500
Br1159     Br  0.70644263  0.25007791  0.05500306    -0.06100
Br1160     Br  0.68552847  0.12727878  0.05318634    -0.03000
Br1161     Br  0.76019662  0.19887109  0.15205184    -0.00200
Br1162     Br  0.65457518  0.23834998  0.09942000    -0.04600
C1163       C  0.67576815  0.03738557  0.20003021    -0.11900
C1164       C  0.69878582  0.05017793  0.20254208     0.03500
C1165       C  0.69921248  0.07515231  0.21133691    -0.12500
C1166       C  0.67698325  0.08781401  0.21768569     0.18400
C1167       C  0.65422385  0.07472883  0.21626647    -0.09500
C1168       C  0.65376172  0.04988461  0.20757593    -0.02500
H1169       H  0.71687898  0.08507331  0.21232152     0.04900
C1170       C  0.67768984  0.11506074  0.22408967     0.20400
H1171       H  0.63584147  0.04053701  0.20580507     0.10100
C1172       C  0.67365548  0.13293544  0.20523376    -0.15900
C1173       C  0.67753321  0.15863434  0.20980890     0.03100
C1174       C  0.68510851  0.16695157  0.23365849    -0.11200
C1175       C  0.68684520  0.14922840  0.25302167    -0.01200
C1176       C  0.68352899  0.12349020  0.24834560    -0.06400
H1177       H  0.66878057  0.12675636  0.18655730     0.06100
H1178       H  0.69337096  0.15508664  0.27130545     0.09500
Br1179     Br  0.62318295  0.09046187  0.22512049    -0.06100
Br1180     Br  0.72974241  0.03557511  0.19184678    -0.03000
Br1181     Br  0.67430316  0.18160302  0.18251023    -0.00200
Br1182     Br  0.68930446  0.10035445  0.27510855    -0.04600
C1183       C  0.45826964  0.00091045  0.96436195    -0.11900
C1184       C  0.43395937  0.01010319  0.96886702     0.03500
C1185       C  0.41640215  0.01077864  0.94941857    -0.12500
C1186       C  0.42276907  0.00256304  0.92537092     0.18400
C1187       C  0.44720214  0.99395562  0.92071525    -0.09500
C1188       C  0.46462377  0.99308926  0.94015953    -0.02500
H1189       H  0.39768420  0.01767507  0.95305753     0.04900
C1190       C  0.40362524  0.00288466  0.90544607     0.20400
H1191       H  0.48328913  0.98622592  0.93635540     0.10100
C1192       C  0.39658271  0.02578341  0.89465784    -0.15900
C1193       C  0.37869370  0.02671776  0.87547194     0.03100
C1194       C  0.36725864  0.00425180  0.86694456    -0.11200
C1195       C  0.37438064  0.98138613  0.87819230    -0.01200
C1196       C  0.39231264  0.98057476  0.89717153    -0.06400
H1197       H  0.40536280  0.04300468  0.90097356     0.06100
H1198       H  0.36589790  0.96386226  0.87234001     0.09500
Br1199     Br  0.45778148  0.98368192  0.88804698    -0.06100
Br1200     Br  0.42399950  0.02260965  0.00088875    -0.03000
Br1201     Br  0.37212109  0.05917063  0.86128240    -0.00200
Br1202     Br  0.40051756  0.94855352  0.91150098    -0.04600
C1203       C  0.36305204  0.86876686  0.00729064    -0.11900
C1204       C  0.38567216  0.86516015  0.02034116     0.03500
C1205       C  0.40385276  0.88401077  0.02013128    -0.12500
C1206       C  0.39946959  0.90660074  0.00747053     0.18400
C1207       C  0.37665756  0.91042396  0.99493571    -0.09500
C1208       C  0.35871179  0.89142667  0.99472285    -0.02500
H1209       H  0.42151249  0.88099978  0.02965652     0.04900
C1210       C  0.41933450  0.92554911  0.00644399     0.20400
H1211       H  0.34117906  0.89445584  0.98497024     0.10100
C1212       C  0.43743955  0.92364092  0.98772159    -0.15900
C1213       C  0.45646886  0.94145426  0.98586132     0.03100
C1214       C  0.45727884  0.96172607  0.00283020    -0.11200
C1215       C  0.43908395  0.96349562  0.02158982    -0.01200
C1216       C  0.42023984  0.94552475  0.02356961    -0.06400
H1217       H  0.43679860  0.90813451  0.97459474     0.06100
H1218       H  0.43968603  0.97884475  0.03487462     0.09500
Br1219     Br  0.36935962  0.94126921  0.97792774    -0.06100
Br1220     Br  0.39300403  0.83448348  0.03760124    -0.03000
Br1221     Br  0.48114397  0.93641617  0.96046630    -0.00200
Br1222     Br  0.39633840  0.94875378  0.05000057    -0.04600
C1223       C  0.53889357  0.03208456  0.99992670    -0.11900
C1224       C  0.55825762  0.02511664  0.98357395     0.03500
C1225       C  0.57831966  0.04135353  0.97985250    -0.12500
C1226       C  0.57939265  0.06428155  0.99259237     0.18400
C1227       C  0.56046662  0.07087776  0.00957977    -0.09500
C1228       C  0.54028201  0.05475018  0.01311361    -0.02500
H1229       H  0.59312059  0.03611274  0.96708004     0.04900
C1230       C  0.60059100  0.08105346  0.98836076     0.20400
H1231       H  0.52556086  0.05999820  0.02592675     0.10100
C1232       C  0.59864032  0.09977533  0.97012685    -0.15900
C1233       C  0.61757931  0.11761116  0.96744949     0.03100
C1234       C  0.63843336  0.11691796  0.98361474    -0.11200
C1235       C  0.64073229  0.09750154  0.00109056    -0.01200
C1236       C  0.62210703  0.07941458  0.00333564    -0.06400
H1237       H  0.58207567  0.10086684  0.95844690     0.06100
H1238       H  0.65700644  0.09650554  0.01314744     0.09500
Br1239     Br  0.56151918  0.10167280  0.02821887    -0.06100
Br1240     Br  0.55805261  0.99357538  0.96615270    -0.03000
Br1241     Br  0.61314001  0.14336246  0.94279376    -0.00200
Br1242     Br  0.62649556  0.05310167  0.02733675    -0.04600
C1243       C  0.49757398  0.03857117  0.96597349    -0.11900
C1244       C  0.48813376  0.06252497  0.97199944     0.03500
C1245       C  0.48894612  0.08177531  0.95431801    -0.12500
C1246       C  0.49895704  0.07745585  0.93052811     0.18400
C1247       C  0.50852189  0.05357656  0.92454751    -0.09500
C1248       C  0.50799900  0.03444158  0.94232394    -0.02500
H1249       H  0.48168391  0.10017163  0.95908295     0.04900
C1250       C  0.49929641  0.09811372  0.91223122     0.20400
H1251       H  0.51559967  0.01622100  0.93758739     0.10100
C1252       C  0.52197076  0.11006007  0.90685764    -0.15900
C1253       C  0.52294003  0.12989248  0.88979779     0.03100
C1254       C  0.50078905  0.13804164  0.87768754    -0.11200
C1255       C  0.47806138  0.12611159  0.88343260    -0.01200
C1256       C  0.47721369  0.10626324  0.90044817    -0.06400
H1257       H  0.53896617  0.10405207  0.91620141     0.06100
H1258       H  0.46089837  0.13190083  0.87428025     0.09500
Br1259     Br  0.52162495  0.04601941  0.89210123    -0.06100
Br1260     Br  0.47409820  0.06986922  0.00409189    -0.03000
Br1261     Br  0.55482540  0.14583875  0.88540956    -0.00200
Br1262     Br  0.44567856  0.09017544  0.90640123    -0.04600
C1263       C  0.49652936  0.95982086  0.04009892    -0.11900
C1264       C  0.50958530  0.93716677  0.03628341     0.03500
C1265       C  0.50997762  0.91906194  0.05503766    -0.12500
C1266       C  0.49778385  0.92339662  0.07772660     0.18400
C1267       C  0.48523553  0.94624814  0.08180702    -0.09500
C1268       C  0.48452782  0.96421265  0.06291843    -0.02500
H1269       H  0.51997369  0.90160478  0.05202170     0.04900
C1270       C  0.49877016  0.90392373  0.09701981     0.20400
H1271       H  0.47483180  0.98177688  0.06611761     0.10100
C1272       C  0.52106069  0.90028944  0.11030912    -0.15900
C1273       C  0.52289658  0.88161505  0.12849598     0.03100
C1274       C  0.50205079  0.86599935  0.13333725    -0.11200
C1275       C  0.47971288  0.86991847  0.11989820    -0.01200
C1276       C  0.47798292  0.88862782  0.10182785    -0.06400
H1277       H  0.53704114  0.91222482  0.10662641     0.06100
H1278       H  0.46355632  0.85810250  0.12311366     0.09500
Br1279     Br  0.46973684  0.95403015  0.11313518    -0.06100
Br1280     Br  0.52797285  0.93042188  0.00636557    -0.03000
Br1281     Br  0.55393345  0.87972722  0.14663774    -0.00200
Br1282     Br  0.44714651  0.89214748  0.08364364    -0.04600
C1283       C  0.53503287  0.99746092  0.04148161    -0.11900
C1284       C  0.53149589  0.01044807  0.06414179     0.03500
C1285       C  0.54954162  0.00878740  0.08310769    -0.12500
C1286       C  0.57139193  0.99447998  0.07977280     0.18400
C1287       C  0.57484622  0.98150004  0.05706733    -0.09500
C1288       C  0.55681962  0.98320201  0.03814890    -0.02500
H1289       H  0.54662216  0.01883728  0.10046661     0.04900
C1290       C  0.59072362  0.99384264  0.09975821     0.20400
H1291       H  0.55985302  0.97337819  0.02072656     0.10100
C1292       C  0.59623932  0.97111452  0.11183131    -0.15900
C1293       C  0.61524162  0.96962848  0.12991156     0.03100
C1294       C  0.62919722  0.99132050  0.13629462    -0.11200
C1295       C  0.62307869  0.01416567  0.12455671    -0.01200
C1296       C  0.60413129  0.01556511  0.10653261    -0.06400
H1297       H  0.58567894  0.95439274  0.10710445     0.06100
H1298       H  0.63336594  0.03109498  0.12911790     0.09500
Br1299     Br  0.60422750  0.96183729  0.05062989    -0.06100
Br1300     Br  0.50247572  0.03088833  0.06981491    -0.03000
Br1301     Br  0.61995721  0.93772291  0.14590720    -0.00200
Br1302     Br  0.59794754  0.04747851  0.09107825    -0.04600
C1303       C  0.76941512  0.81369096  0.30107703    -0.11900
C1304       C  0.79199168  0.82721868  0.29796294     0.03500
C1305       C  0.79351692  0.85228409  0.30528600    -0.12500
C1306       C  0.77274645  0.86476347  0.31507729     0.18400
C1307       C  0.75041347  0.85138433  0.31903440    -0.09500
C1308       C  0.74896513  0.82586894  0.31235489    -0.02500
H1309       H  0.81080754  0.86247514  0.30235961     0.04900
C1310       C  0.77537069  0.89183527  0.32057489     0.20400
H1311       H  0.73122607  0.81620116  0.31403231     0.10100
C1312       C  0.77513063  0.90912853  0.30079174    -0.15900
C1313       C  0.78348161  0.93389357  0.30426350     0.03100
C1314       C  0.79233430  0.94155567  0.32797016    -0.11200
C1315       C  0.79082089  0.92452147  0.34801361    -0.01200
C1316       C  0.78271416  0.89987401  0.34443595    -0.06400
H1317       H  0.76984606  0.90288775  0.28224014     0.06100
H1318       H  0.79729038  0.92997667  0.36643537     0.09500
Br1319     Br  0.72106867  0.86784710  0.33145729    -0.06100
Br1320     Br  0.82093536  0.81352190  0.28168086    -0.03000
Br1321     Br  0.78498519  0.95506657  0.27535523    -0.00200
Br1322     Br  0.78454096  0.87707642  0.37208201    -0.04600
C1323       C  0.69706514  0.94636193  0.18088968    -0.11900
C1324       C  0.71449442  0.94204496  0.20056318     0.03500
C1325       C  0.72386832  0.91756926  0.20499312    -0.12500
C1326       C  0.71673474  0.89701515  0.18999462     0.18400
C1327       C  0.70072593  0.90152522  0.16966397    -0.09500
C1328       C  0.69134449  0.92570592  0.16518757    -0.02500
H1329       H  0.73618557  0.91440700  0.22078357     0.04900
C1330       C  0.72274279  0.87063714  0.19777966     0.20400
H1331       H  0.67870974  0.92796442  0.14952888     0.10100
C1332       C  0.70562486  0.85820950  0.21306053    -0.15900
C1333       C  0.70950162  0.83335611  0.22070276     0.03100
C1334       C  0.73149906  0.82003214  0.21364501    -0.11200
C1335       C  0.74825337  0.83222427  0.19737380    -0.01200
C1336       C  0.74388076  0.85717128  0.18928790    -0.06400
H1337       H  0.68884216  0.86795694  0.21899222     0.06100
H1338       H  0.76518134  0.82269879  0.19156669     0.09500
Br1339     Br  0.68987192  0.87470845  0.14824756    -0.06100
Br1340     Br  0.72606045  0.96804833  0.22262786    -0.03000
Br1341     Br  0.68315191  0.81898214  0.24040445    -0.00200
Br1342     Br  0.76712600  0.87226028  0.16670716    -0.04600
C1343       C  0.95501865  0.69808277  0.17919884    -0.11900
C1344       C  0.95132864  0.72282982  0.17070134     0.03500
C1345       C  0.92830278  0.73488380  0.17475625    -0.12500
C1346       C  0.90893162  0.72264660  0.18757263     0.18400
C1347       C  0.91296406  0.69802736  0.19645688    -0.09500
C1348       C  0.93572947  0.68591946  0.19198621    -0.02500
H1349       H  0.92542064  0.75372647  0.16772191     0.04900
C1350       C  0.88438901  0.73518837  0.19133610     0.20400
H1351       H  0.93846422  0.66691491  0.19867304     0.10100
C1352       C  0.86298491  0.72457071  0.18037309    -0.15900
C1353       C  0.83902496  0.73228074  0.18750890     0.03100
C1354       C  0.83612615  0.75112137  0.20584150    -0.11200
C1355       C  0.85755232  0.76354173  0.21486531    -0.01200
C1356       C  0.88157775  0.75576724  0.20769155    -0.06400
H1357       H  0.86493783  0.70922422  0.16719634     0.06100
H1358       H  0.85573439  0.77801067  0.22900948     0.09500
Br1359     Br  0.88823749  0.68030967  0.21548618    -0.06100
Br1360     Br  0.97682632  0.74033377  0.15264794    -0.03000
Br1361     Br  0.81097343  0.71587436  0.17212161    -0.00200
Br1362     Br  0.90989007  0.77236289  0.22234823    -0.04600
C1363       C  0.95760585  0.79971050  0.31368648    -0.11900
C1364       C  0.95504308  0.77501200  0.32280541     0.03500
C1365       C  0.93259029  0.76165679  0.31896003    -0.12500
C1366       C  0.91246817  0.77248160  0.30580181     0.18400
C1367       C  0.91532173  0.79709032  0.29643388    -0.09500
C1368       C  0.93758927  0.81045607  0.30053220    -0.02500
H1369       H  0.93082577  0.74279069  0.32625963     0.04900
C1370       C  0.88866171  0.75821359  0.30166196     0.20400
H1371       H  0.93935794  0.82932588  0.29322300     0.10100
C1372       C  0.86661284  0.76601221  0.31369521    -0.15900
C1373       C  0.84326118  0.75561946  0.30729215     0.03100
C1374       C  0.84142596  0.73794156  0.28769933    -0.11200
C1375       C  0.86370077  0.72846125  0.27737166    -0.01200
C1376       C  0.88716279  0.73807586  0.28453966    -0.06400
H1377       H  0.86751833  0.78058997  0.32781078     0.06100
H1378       H  0.86283058  0.71444407  0.26270123     0.09500
Br1379     Br  0.88966046  0.81304312  0.27705868    -0.06100
Br1380     Br  0.98167735  0.75902189  0.34082086    -0.03000
Br1381     Br  0.81459512  0.76507755  0.32665714    -0.00200
Br1382     Br  0.91650496  0.72385579  0.26958391    -0.04600
C1383       C  0.74638054  0.65944308  0.29149686    -0.11900
C1384       C  0.76115032  0.63822521  0.28574739     0.03500
C1385       C  0.75309762  0.61407709  0.29238981    -0.12500
C1386       C  0.73037607  0.61053294  0.30490615     0.18400
C1387       C  0.71657375  0.63183062  0.31239937    -0.09500
C1388       C  0.72453513  0.65598638  0.30555467    -0.02500
H1389       H  0.76413569  0.59791561  0.28692771     0.04900
C1390       C  0.72068391  0.58459416  0.30869717     0.20400
H1391       H  0.71284906  0.67196523  0.30997295     0.10100
C1392       C  0.72221598  0.57348925  0.33235242    -0.15900
C1393       C  0.71192024  0.54967473  0.33676815     0.03100
C1394       C  0.69990459  0.53632614  0.31727468    -0.11200
C1395       C  0.69935195  0.54701668  0.29333074    -0.01200
C1396       C  0.70940915  0.57099509  0.28900471    -0.06400
H1397       H  0.73110960  0.58358154  0.34755662     0.06100
H1398       H  0.68990998  0.53727626  0.27822844     0.09500
Br1399     Br  0.68570319  0.62866791  0.33020099    -0.06100
Br1400     Br  0.79165005  0.64108878  0.26729024    -0.03000
Br1401     Br  0.71522100  0.53608333  0.36973968    -0.00200
Br1402     Br  0.70570005  0.58525127  0.25633713    -0.04600
C1403       C  0.76957714  0.66310603  0.20022059    -0.11900
C1404       C  0.74838061  0.64943444  0.19192741     0.03500
C1405       C  0.75083077  0.62410601  0.18471748    -0.12500
C1406       C  0.77407511  0.61185821  0.18586406     0.18400
C1407       C  0.79531895  0.62570308  0.19315945    -0.09500
C1408       C  0.79295821  0.65094284  0.20026683    -0.02500
H1409       H  0.73437297  0.61367147  0.17903123     0.04900
C1410       C  0.77619520  0.58469564  0.17947263     0.20400
H1411       H  0.80940139  0.66086973  0.20686291     0.10100
C1412       C  0.77837594  0.57753761  0.15438822    -0.15900
C1413       C  0.78444465  0.55275385  0.14784929     0.03100
C1414       C  0.78865212  0.53454123  0.16659182    -0.11200
C1415       C  0.78444728  0.54125589  0.19160935    -0.01200
C1416       C  0.77828881  0.56610152  0.19811193    -0.06400
H1417       H  0.77626428  0.59150366  0.13985342     0.06100
H1418       H  0.78734879  0.52754427  0.20624922     0.09500
Br1419     Br  0.82791168  0.61059785  0.19441337    -0.06100
Br1420     Br  0.71521308  0.66328456  0.19258674    -0.03000
Br1421     Br  0.78667623  0.54477821  0.11294071    -0.00200
Br1422     Br  0.77404517  0.57414049  0.23274031    -0.04600
C1423       C  0.66858641  0.75526675  0.21149976    -0.11900
C1424       C  0.66573655  0.76511015  0.18726234     0.03500
C1425       C  0.64187899  0.77267330  0.17898249    -0.12500
C1426       C  0.62084530  0.77013799  0.19451229     0.18400
C1427       C  0.62358212  0.75887488  0.21801817    -0.09500
C1428       C  0.64720668  0.75159990  0.22628494    -0.02500
H1429       H  0.63987019  0.78140102  0.16083871     0.04900
C1430       C  0.59663882  0.78160650  0.18755477     0.20400
H1431       H  0.64897693  0.74368181  0.24484056     0.10100
C1432       C  0.57769862  0.76680694  0.17684025    -0.15900
C1433       C  0.55374269  0.77679239  0.17267349     0.03100
C1434       C  0.54853382  0.80181868  0.17947991    -0.11200
C1435       C  0.56761787  0.81664186  0.18983134    -0.01200
C1436       C  0.59145669  0.80670151  0.19404419    -0.06400
H1437       H  0.58151410  0.74743212  0.17193464     0.06100
H1438       H  0.56391325  0.83604900  0.19473315     0.09500
Br1439     Br  0.59578377  0.75461043  0.24023577    -0.06100
Br1440     Br  0.69387357  0.77047791  0.16583665    -0.03000
Br1441     Br  0.52917833  0.75614364  0.15648109    -0.00200
Br1442     Br  0.61623743  0.82785816  0.20931562    -0.04600
C1443       C  0.67630350  0.70690610  0.29548474    -0.11900
C1444       C  0.66411120  0.71891704  0.31563186     0.03500
C1445       C  0.63979975  0.71137514  0.32238251    -0.12500
C1446       C  0.62761978  0.69180345  0.30956023     0.18400
C1447       C  0.64066447  0.67843127  0.29112466    -0.09500
C1448       C  0.66476353  0.68572466  0.28457891    -0.02500
H1449       H  0.63003471  0.72137293  0.33705057     0.04900
C1450       C  0.60093429  0.68610206  0.31425181     0.20400
H1451       H  0.67388576  0.67565219  0.26953394     0.10100
C1452       C  0.58235192  0.69995315  0.30182828    -0.15900
C1453       C  0.55706665  0.69269509  0.30258262     0.03100
C1454       C  0.54991785  0.67103969  0.31618590    -0.11200
C1455       C  0.56889998  0.65784768  0.32922441    -0.01200
C1456       C  0.59396432  0.66507214  0.32825309    -0.06400
H1457       H  0.58770182  0.71606443  0.29074398     0.06100
H1458       H  0.56455898  0.64121948  0.33994611     0.09500
Br1459     Br  0.62548162  0.65148530  0.27261169    -0.06100
Br1460     Br  0.67876190  0.74646172  0.33353690    -0.03000
Br1461     Br  0.53407768  0.71322650  0.28417137    -0.00200
Br1462     Br  0.61820953  0.64491022  0.34553833    -0.04600
C1463       C  0.95607334  0.32209323  0.80156733    -0.11900
C1464       C  0.95032022  0.30144629  0.78574890     0.03500
C1465       C  0.92598921  0.29876051  0.77581010    -0.12500
C1466       C  0.90697120  0.31623799  0.78110073     0.18400
C1467       C  0.91290448  0.33731504  0.79572094    -0.09500
C1468       C  0.93708358  0.34023342  0.80545055    -0.02500
H1469       H  0.92148679  0.28214362  0.76498439     0.04900
C1470       C  0.88034500  0.30937072  0.77634308     0.20400
H1471       H  0.94059264  0.35651688  0.81708209     0.10100
C1472       C  0.86877571  0.29405190  0.79391109    -0.15900
C1473       C  0.84423896  0.28569270  0.79073374     0.03100
C1474       C  0.82995591  0.29295177  0.76947039    -0.11200
C1475       C  0.84134867  0.30943545  0.75223994    -0.01200
C1476       C  0.86637534  0.31750385  0.75548056    -0.06400
H1477       H  0.87929049  0.28798371  0.81016402     0.06100
H1478       H  0.83131763  0.31496883  0.73552886     0.09500
Br1479     Br  0.88784708  0.36145962  0.80488020    -0.06100
Br1480     Br  0.97366819  0.27508830  0.77829525    -0.03000
Br1481     Br  0.83283978  0.26334640  0.81629213    -0.00200
Br1482     Br  0.88126064  0.33852061  0.73060509    -0.04600
C1483       C  0.95893819  0.17014575  0.69855600    -0.11900
C1484       C  0.95631196  0.18624626  0.71956241     0.03500
C1485       C  0.93242602  0.19092420  0.72957766    -0.12500
C1486       C  0.91101455  0.17938050  0.71954430     0.18400
C1487       C  0.91391647  0.16160753  0.70033814    -0.09500
C1488       C  0.93747239  0.15721804  0.69007224    -0.02500
H1489       H  0.93043159  0.20445719  0.74457802     0.04900
C1490       C  0.88569920  0.18906788  0.72574222     0.20400
H1491       H  0.93859524  0.14415204  0.67460164     0.10100
C1492       C  0.87262118  0.20171240  0.70689330    -0.15900
C1493       C  0.84853704  0.21093546  0.71072907     0.03100
C1494       C  0.83671579  0.20783679  0.73402494    -0.11200
C1495       C  0.84983234  0.19509967  0.75316472    -0.01200
C1496       C  0.87425334  0.18583852  0.74918711    -0.06400
H1497       H  0.88126082  0.20429895  0.68880287     0.06100
H1498       H  0.84131815  0.19279336  0.77134276     0.09500
Br1499     Br  0.88590245  0.14360214  0.68661358    -0.06100
Br1500     Br  0.98403895  0.20246413  0.73577600    -0.03000
Br1501     Br  0.83263380  0.22677084  0.68272385    -0.00200
Br1502     Br  0.89119292  0.16862489  0.77580875    -0.04600
C1503       C  0.73329109  0.19391098  0.81672575    -0.11900
C1504       C  0.75272571  0.18479935  0.83204478     0.03500
C1505       C  0.74705858  0.17624760  0.85590879    -0.12500
C1506       C  0.72222880  0.17607687  0.86412340     0.18400
C1507       C  0.70268831  0.18199906  0.84749745    -0.09500
C1508       C  0.70837907  0.19098995  0.82388827    -0.02500
H1509       H  0.76209570  0.17130755  0.86860018     0.04900
C1510       C  0.71706348  0.17261079  0.89066637     0.20400
H1511       H  0.69344880  0.19741660  0.81185984     0.10100
C1512       C  0.70825331  0.19320887  0.90446978    -0.15900
C1513       C  0.70001180  0.19008614  0.92892824     0.03100
C1514       C  0.70080420  0.16607200  0.93974619    -0.11200
C1515       C  0.71103563  0.14582862  0.92635534    -0.01200
C1516       C  0.71936235  0.14900271  0.90194455    -0.06400
H1517       H  0.70671563  0.21150174  0.89575124     0.06100
H1518       H  0.71161850  0.12727190  0.93460422     0.09500
Br1519     Br  0.66815880  0.18015631  0.85695021    -0.06100
Br1520     Br  0.78738266  0.18691595  0.82275052    -0.03000
Br1521     Br  0.68529819  0.21840919  0.94554014    -0.00200
Br1522     Br  0.73195035  0.12038702  0.88409205    -0.04600
C1523       C  0.77385718  0.27648462  0.83649467    -0.11900
C1524       C  0.77597891  0.30163967  0.84476288     0.03500
C1525       C  0.78236183  0.30685090  0.86987368    -0.12500
C1526       C  0.78651883  0.28737764  0.88716286     0.18400
C1527       C  0.78340610  0.26242766  0.87917931    -0.09500
C1528       C  0.77713908  0.25723242  0.85431596    -0.02500
H1529       H  0.78469704  0.32617514  0.87578931     0.04900
C1530       C  0.79566328  0.29302952  0.91294974     0.20400
H1531       H  0.77504580  0.23775420  0.84887771     0.10100
C1532       C  0.77870782  0.29921084  0.93202376    -0.15900
C1533       C  0.78709914  0.30431706  0.95649880     0.03100
C1534       C  0.81286007  0.30304186  0.96233855    -0.11200
C1535       C  0.82968511  0.29669432  0.94318570    -0.01200
C1536       C  0.82133873  0.29163968  0.91882553    -0.06400
H1537       H  0.75891483  0.30041694  0.92777328     0.06100
H1538       H  0.84958313  0.29613056  0.94710461     0.09500
Br1539     Br  0.78803210  0.23466588  0.90154174    -0.06100
Br1540     Br  0.77177027  0.32948693  0.82254977    -0.03000
Br1541     Br  0.76295096  0.31517365  0.98055369    -0.00200
Br1542     Br  0.84577887  0.28355464  0.89388737    -0.04600
C1543       C  0.66551570  0.21591988  0.77149014    -0.11900
C1544       C  0.65182857  0.22526987  0.79225185     0.03500
C1545       C  0.62729305  0.21741736  0.79632371    -0.12500
C1546       C  0.61578602  0.19997414  0.78052760     0.18400
C1547       C  0.62942000  0.18985314  0.76042971    -0.09500
C1548       C  0.65406030  0.19792975  0.75594002    -0.02500
H1549       H  0.61719643  0.22461652  0.81234424     0.04900
C1550       C  0.59050414  0.19108226  0.78744766     0.20400
H1551       H  0.66403538  0.19054755  0.73995613     0.10100
C1552       C  0.56901496  0.20311246  0.77819265    -0.15900
C1553       C  0.54527437  0.19822304  0.78844309     0.03100
C1554       C  0.54306226  0.18207245  0.80935499    -0.11200
C1555       C  0.56460174  0.16861418  0.81682650    -0.01200
C1556       C  0.58789946  0.17287476  0.80606632    -0.06400
H1557       H  0.57077388  0.21662007  0.76321181     0.06100
H1558       H  0.56377278  0.15503370  0.83174854     0.09500
Br1559     Br  0.61510589  0.16483113  0.73900971    -0.06100
Br1560     Br  0.66548408  0.24780707  0.81694066    -0.03000
Br1561     Br  0.51705860  0.21267905  0.77163980    -0.00200
Br1562     Br  0.61601568  0.15406037  0.81822155    -0.04600
C1563       C  0.67700793  0.30522813  0.73780443    -0.11900
C1564       C  0.66278680  0.31414952  0.75827956     0.03500
C1565       C  0.63732683  0.32053088  0.75497027    -0.12500
C1566       C  0.62565861  0.31797539  0.73151753     0.18400
C1567       C  0.64031743  0.31085381  0.71091836    -0.09500
C1568       C  0.66559855  0.30487511  0.71412026    -0.02500
H1569       H  0.62637294  0.32644793  0.77091730     0.04900
C1570       C  0.59831543  0.32257386  0.72814374     0.20400
H1571       H  0.67593790  0.29791212  0.69821128     0.10100
C1572       C  0.59011392  0.34683438  0.72226265    -0.15900
C1573       C  0.56583669  0.35107508  0.71315644     0.03100
C1574       C  0.54914011  0.33074760  0.70944572    -0.11200
C1575       C  0.55664909  0.30674206  0.71747596    -0.01200
C1576       C  0.58101475  0.30257122  0.72672687    -0.06400
H1577       H  0.60306434  0.36242291  0.72361746     0.06100
H1578       H  0.54410472  0.29093020  0.71519718     0.09500
Br1579     Br  0.62610829  0.30713206  0.67816868    -0.06100
Br1580     Br  0.67629105  0.31556848  0.79148349    -0.03000
Br1581     Br  0.55663160  0.38520278  0.70608634    -0.00200
Br1582     Br  0.59052479  0.26902696  0.73576581    -0.04600
C1583       C  0.69414122  0.31849090  0.54272706    -0.11900
C1584       C  0.71313522  0.30076357  0.54835554     0.03500
C1585       C  0.72170271  0.29820902  0.57307827    -0.12500
C1586       C  0.71195208  0.31316457  0.59236944     0.18400
C1587       C  0.69412026  0.33158126  0.58667096    -0.09500
C1588       C  0.68551746  0.33418059  0.56223742    -0.02500
H1589       H  0.73547428  0.28391841  0.57743653     0.04900
C1590       C  0.71764595  0.30698645  0.61867083     0.20400
H1591       H  0.67120310  0.34818156  0.55890116     0.10100
C1592       C  0.73870171  0.31711657  0.63081277    -0.15900
C1593       C  0.74458429  0.31037154  0.65557126     0.03100
C1594       C  0.72920504  0.29312959  0.66839181    -0.11200
C1595       C  0.70735007  0.28439100  0.65633157    -0.01200
C1596       C  0.70163562  0.29098608  0.63185494    -0.06400
H1597       H  0.75084306  0.32987620  0.62083561     0.06100
H1598       H  0.69503441  0.27124828  0.66559784     0.09500
Br1599     Br  0.67974732  0.35260887  0.61203569    -0.06100
Br1600     Br  0.72839076  0.27949830  0.52371365    -0.03000
Br1601     Br  0.77442552  0.32409575  0.67004944    -0.00200
Br1602     Br  0.67224340  0.27663627  0.61677309    -0.04600
C1603       C  0.75971490  0.20206065  0.67136038    -0.11900
C1604       C  0.77804390  0.18355931  0.66715955     0.03500
C1605       C  0.78518123  0.17751964  0.64255619    -0.12500
C1606       C  0.77411501  0.18966805  0.62190403     0.18400
C1607       C  0.75422775  0.20649949  0.62622492    -0.09500
C1608       C  0.74721643  0.21246587  0.65069737    -0.02500
H1609       H  0.80021079  0.16419769  0.63956675     0.04900
C1610       C  0.78484432  0.18646170  0.59634894     0.20400
H1611       H  0.73323633  0.22692963  0.65357633     0.10100
C1612       C  0.77117452  0.17395983  0.57759997    -0.15900
C1613       C  0.78074203  0.17140832  0.55325867     0.03100
C1614       C  0.80440675  0.18137946  0.54725665    -0.11200
C1615       C  0.81802446  0.19385973  0.56600132    -0.01200
C1616       C  0.80836075  0.19671729  0.59018600    -0.06400
H1617       H  0.75305166  0.16603940  0.58196064     0.06100
H1618       H  0.83632079  0.20146892  0.56178115     0.09500
Br1619     Br  0.73808620  0.22429627  0.59952808    -0.06100
Br1620     Br  0.79467311  0.16738022  0.69449854    -0.03000
Br1621     Br  0.76151408  0.15291814  0.52923298    -0.00200
Br1622     Br  0.82760400  0.21565857  0.61391136    -0.04600
C1623       C  0.28641266  0.77402472  0.83279086    -0.11900
C1624       C  0.30295599  0.76018961  0.84837558     0.03500
C1625       C  0.30593009  0.76695092  0.87369870    -0.12500
C1626       C  0.29177669  0.78646289  0.88443544     0.18400
C1627       C  0.27428896  0.79913160  0.86927496    -0.09500
C1628       C  0.27217635  0.79327263  0.84396219    -0.02500
H1629       H  0.31946513  0.75695682  0.88503810     0.04900
C1630       C  0.29695498  0.79531743  0.91045505     0.20400
H1631       H  0.25836254  0.80348542  0.83319465     0.10100
C1632       C  0.30331851  0.82064672  0.91390081    -0.15900
C1633       C  0.30778743  0.83059188  0.93761328     0.03100
C1634       C  0.30724639  0.81485374  0.95880951    -0.11200
C1635       C  0.30061819  0.78949312  0.95560099    -0.01200
C1636       C  0.29546708  0.77965377  0.93170188    -0.06400
H1637       H  0.30454016  0.83299239  0.89789723     0.06100
H1638       H  0.30002913  0.77714020  0.97163046     0.09500
Br1639     Br  0.25160547  0.82391091  0.88229354    -0.06100
Br1640     Br  0.32129561  0.73134325  0.83707823    -0.03000
Br1641     Br  0.31292090  0.86628297  0.93964244    -0.00200
Br1642     Br  0.28620621  0.74494140  0.92931807    -0.04600
C1643       C  0.21690050  0.73928008  0.83372854    -0.11900
C1644       C  0.19600526  0.74893439  0.84678420     0.03500
C1645       C  0.18999776  0.73942205  0.87055245    -0.12500
C1646       C  0.20438573  0.72028952  0.88160408     0.18400
C1647       C  0.22499019  0.71058212  0.86856137    -0.09500
C1648       C  0.23106380  0.72004453  0.84512690    -0.02500
H1649       H  0.17380765  0.74670436  0.88030605     0.04900
C1650       C  0.19713924  0.70942461  0.90604140     0.20400
H1651       H  0.24732745  0.71222495  0.83592249     0.10100
C1652       C  0.18674649  0.68533961  0.90647001    -0.15900
C1653       C  0.18142157  0.67327242  0.92900878     0.03100
C1654       C  0.18621401  0.68550209  0.95215063    -0.11200
C1655       C  0.19675749  0.70976332  0.95155567    -0.01200
C1656       C  0.20214963  0.72170485  0.92880564    -0.06400
H1657       H  0.18331779  0.67556720  0.88901349     0.06100
H1658       H  0.20066108  0.71962505  0.96883174     0.09500
Br1659     Br  0.24579546  0.68448242  0.88209056    -0.06100
Br1660     Br  0.17430226  0.77405499  0.83298568    -0.03000
Br1661     Br  0.16948429  0.63940696  0.92600065    -0.00200
Br1662     Br  0.21689448  0.75451647  0.92954288    -0.04600
C1663       C  0.22047600  0.84346354  0.73864466    -0.11900
C1664       C  0.23678977  0.86332240  0.73153236     0.03500
C1665       C  0.22720170  0.88667114  0.72470761    -0.12500
C1666       C  0.20150299  0.89099257  0.72372653     0.18400
C1667       C  0.18507157  0.87177667  0.73133011    -0.09500
C1668       C  0.19461386  0.84838848  0.73922376    -0.02500
H1669       H  0.23994285  0.90124844  0.71863018     0.04900
C1670       C  0.19292844  0.91465834  0.71177595     0.20400
H1671       H  0.18171194  0.83354695  0.74415193     0.10100
C1672       C  0.18716985  0.91428691  0.68623757    -0.15900
C1673       C  0.18334810  0.93660119  0.67289855     0.03100
C1674       C  0.18490859  0.96014889  0.68521830    -0.11200
C1675       C  0.19064285  0.96040464  0.71090814    -0.01200
C1676       C  0.19476241  0.93797716  0.72410124    -0.06400
H1677       H  0.18681305  0.89650812  0.67634398     0.06100
H1678       H  0.19202492  0.97812580  0.72078671     0.09500
Br1679     Br  0.14956920  0.87635117  0.72992691    -0.06100
Br1680     Br  0.27240772  0.86021253  0.72820046    -0.03000
Br1681     Br  0.17878430  0.93337466  0.63743426    -0.00200
Br1682     Br  0.20341079  0.93990515  0.75883761    -0.04600
C1683       C  0.29743710  0.82500436  0.77354260    -0.11900
C1684       C  0.32027788  0.83511755  0.76483503     0.03500
C1685       C  0.32672229  0.86007014  0.77083237    -0.12500
C1686       C  0.31081024  0.87512540  0.78547331     0.18400
C1687       C  0.28924950  0.86437951  0.79576432    -0.09500
C1688       C  0.28297240  0.83967032  0.79009562    -0.02500
H1689       H  0.34386947  0.86796585  0.76353912     0.04900
C1690       C  0.31681722  0.90184793  0.79054480     0.20400
H1691       H  0.26548819  0.83270485  0.79746953     0.10100
C1692       C  0.30200592  0.92096052  0.78005883    -0.15900
C1693       C  0.30490359  0.94624265  0.78727989     0.03100
C1694       C  0.32319714  0.95289529  0.80539059    -0.11200
C1695       C  0.33858322  0.93337616  0.81487496    -0.01200
C1696       C  0.33540474  0.90831852  0.80784159    -0.06400
H1697       H  0.28748692  0.91601710  0.76675660     0.06100
H1698       H  0.35296778  0.93724364  0.82861367     0.09500
Br1699     Br  0.26700690  0.88297266  0.81698903    -0.06100
Br1700     Br  0.34312700  0.81630415  0.74450467    -0.03000
Br1701     Br  0.28252617  0.96981052  0.77202762    -0.00200
Br1702     Br  0.35570568  0.88327755  0.82388565    -0.04600
C1703       C  0.29100639  0.73916534  0.65935183    -0.11900
C1704       C  0.31277604  0.72509505  0.65449347     0.03500
C1705       C  0.31831210  0.71764745  0.62984855    -0.12500
C1706       C  0.30226655  0.72391599  0.60989743     0.18400
C1707       C  0.28106008  0.73873270  0.61470370    -0.09500
C1708       C  0.27568258  0.74629252  0.63912169    -0.02500
H1709       H  0.33454164  0.70596120  0.62639579     0.04900
C1710       C  0.30626172  0.71275711  0.58474491     0.20400
H1711       H  0.25862324  0.75677877  0.64250836     0.10100
C1712       C  0.29422232  0.69011429  0.57871092    -0.15900
C1713       C  0.29774804  0.67866038  0.55539513     0.03100
C1714       C  0.31347234  0.68985827  0.53756460    -0.11200
C1715       C  0.32495621  0.71288793  0.54327220    -0.01200
C1716       C  0.32132511  0.72443189  0.56661790    -0.06400
H1717       H  0.28226827  0.68115860  0.59234252     0.06100
H1718       H  0.33729701  0.72156170  0.52981029     0.09500
Br1719     Br  0.25795249  0.74750294  0.58867142    -0.06100
Br1720     Br  0.33381733  0.71346261  0.68107877    -0.03000
Br1721     Br  0.28126189  0.64733587  0.54885552    -0.00200
Br1722     Br  0.33745717  0.75590025  0.57317047    -0.04600
C1723       C  0.20578890  0.77797230  0.66737405    -0.11900
C1724       C  0.20780227  0.80230207  0.65697515     0.03500
C1725       C  0.19978064  0.80691841  0.63255739    -0.12500
C1726       C  0.18969181  0.78773005  0.61779711     0.18400
C1727       C  0.18601190  0.76384299  0.62845984    -0.09500
C1728       C  0.19393019  0.75913446  0.65313318    -0.02500
H1729       H  0.20241036  0.82543683  0.62463120     0.04900
C1730       C  0.18543736  0.79287431  0.59085666     0.20400
H1731       H  0.19256925  0.74023739  0.66044452     0.10100
C1732       C  0.20623708  0.79476777  0.57502904    -0.15900
C1733       C  0.20375663  0.80282851  0.55022357     0.03100
C1734       C  0.17993946  0.80952781  0.54081483    -0.11200
C1735       C  0.15902505  0.80688329  0.55662470    -0.01200
C1736       C  0.16162240  0.79881832  0.58138631    -0.06400
H1737       H  0.22473061  0.79103734  0.58240601     0.06100
H1738       H  0.14054624  0.81200612  0.54998377     0.09500
Br1739     Br  0.17222717  0.73673643  0.60925033    -0.06100
Br1740     Br  0.22252131  0.82998372  0.67456135    -0.03000
Br1741     Br  0.23400464  0.80668633  0.53139998    -0.00200
Br1742     Br  0.13247077  0.79824738  0.60216687    -0.04600
C1743       C  0.33565183  0.54721212  0.70709067    -0.11900
C1744       C  0.35156308  0.56863989  0.70789795     0.03500
C1745       C  0.34263456  0.59146968  0.71717309    -0.12500
C1746       C  0.31820856  0.59378355  0.72599998     0.18400
C1747       C  0.30281918  0.57237551  0.72689268    -0.09500
C1748       C  0.31159638  0.54929895  0.71759351    -0.02500
H1749       H  0.35456220  0.60791110  0.71653864     0.04900
C1750       C  0.30826118  0.61938893  0.73007485     0.20400
H1751       H  0.29912132  0.53328793  0.71756552     0.10100
C1752       C  0.29618502  0.63110524  0.71004868    -0.15900
C1753       C  0.28850720  0.65612098  0.71156085     0.03100
C1754       C  0.29267906  0.67008696  0.73375002    -0.11200
C1755       C  0.30501649  0.65826265  0.75383175    -0.01200
C1756       C  0.31294416  0.63316596  0.75204260    -0.06400
H1757       H  0.29318143  0.62078673  0.69282957     0.06100
H1758       H  0.30801370  0.66834025  0.77117569     0.09500
Br1759     Br  0.26944111  0.57423703  0.73981777    -0.06100
Br1760     Br  0.38576482  0.56903732  0.69673405    -0.03000
Br1761     Br  0.27340637  0.66995059  0.68198352    -0.00200
Br1762     Br  0.32985678  0.61829735  0.77995288    -0.04600
C1763       C  0.18417814  0.55650217  0.81586222    -0.11900
C1764       C  0.19529167  0.56001407  0.79218527     0.03500
C1765       C  0.19907547  0.58437849  0.78315884    -0.12500
C1766       C  0.19169729  0.60545133  0.79707483     0.18400
C1767       C  0.18077167  0.60215192  0.82056341    -0.09500
C1768       C  0.17721101  0.57794471  0.82976513    -0.02500
H1769       H  0.20803475  0.58696772  0.76522420     0.04900
C1770       C  0.19882061  0.63060992  0.78839214     0.20400
H1771       H  0.16914592  0.57598841  0.84816343     0.10100
C1772       C  0.18107299  0.64725955  0.77807565    -0.15900
C1773       C  0.18828569  0.67123110  0.76960202     0.03100
C1774       C  0.21360728  0.67839791  0.77133465    -0.11200
C1775       C  0.23087563  0.66135323  0.78206388    -0.01200
C1776       C  0.22374572  0.63809905  0.79072309    -0.06400
H1777       H  0.16165667  0.64160635  0.77670806     0.06100
H1778       H  0.25058527  0.66580021  0.78373182     0.09500
Br1779     Br  0.17151886  0.63022073  0.84117405    -0.06100
Br1780     Br  0.20460908  0.53293402  0.77047005    -0.03000
Br1781     Br  0.16299488  0.69338567  0.75700458    -0.00200
Br1782     Br  0.24908908  0.61757439  0.80608652    -0.04600
loop_ 
_geom_bond_atom_site_label_1 
_geom_bond_atom_site_label_2 
_geom_bond_distance 
_geom_bond_site_symmetry_2 
_ccdc_geom_bond_type 
O1            C9   1.282       .  A
O1          Co21   2.026       .  S
O2           C10   1.278       .  A
O2          Co22   2.020       .  S
O3           C11   1.298       .  A
O3          Co23   2.087       .  S
O4           C12   1.277       .  A
O4          Co24   2.007       .  S
O5           C11   1.283       .  A
O5          Co22   1.932       .  S
O6           C12   1.282       .  A
O6          Co21   2.004       .  S
O7           C10   1.265       .  A
O7          Co24   1.980       .  S
O8            C9   1.264       .  A
O8          Co23   1.927       .  S
C9         C1774   1.485       .  S
C10        C1663   1.494       .  S
C11        C1643   1.495       .  S
C12        C1723   1.490       .  S
O13          C26   1.268       .  A
O13         Co21   1.990       .  S
O14          C27   1.301       .  A
O14         Co22   2.096       .  S
O15          C28   1.273       .  A
O15         Co23   1.969       .  S
O16          C29   1.276       .  A
O16         Co24   1.970       .  S
O17          C29   1.309       .  A
O17         Co22   2.075       .  S
O18          C28   1.276       .  A
O18         Co21   2.018       .  S
O19          C26   1.276       .  A
O19         Co24   2.007       .  S
O20          C27   1.265       .  A
O20         Co23   1.980       .  S
Co21         O25   2.053       .  S
Co22         O25   1.921       .  S
Co23         O25   1.993       .  S
Co24         O25   2.010       .  S
C26        C1703   1.484       .  S
C27        C1623   1.501       .  S
C28        C1754   1.486       .  S
C29        C1683   1.494       .  S
O30          C38   1.274       .  A
O30         Co50   1.989       .  S
O31          C39   1.254       .  A
O31         Co51   1.924       .  S
O32          C40   1.276       .  A
O32         Co52   2.045       .  S
O33          C41   1.256       .  A
O33         Co53   1.987       .  S
O34          C40   1.256       .  A
O34         Co51   1.948       .  S
O35          C41   1.269       .  A
O35         Co50   2.005       .  S
O36          C39   1.278       .  A
O36         Co53   2.031       .  S
O37          C38   1.278       .  A
O37         Co52   2.021       .  S
C38        C1603   1.481       .  S
C39        C1503   1.448       .  S
C40        C1494   1.490       .  S
C41        C1543   1.490       .  S
O42          C55   1.284       .  A
O42         Co50   2.026       .  S
O43          C56   1.274       .  A
O43         Co51   2.014       .  S
O44          C57   1.272       .  A
O44         Co52   2.007       .  S
O45          C58   1.282       .  A
O45         Co53   2.015       .  S
O46          C58   1.273       .  A
O46         Co51   1.997       .  S
O47          C57   1.262       .  A
O47         Co50   1.976       .  S
O48          C55   1.284       .  A
O48         Co53   1.990       .  S
O49          C56   1.281       .  A
O49         Co52   2.005       .  S
Co50         O54   2.055       .  S
Co51         O54   1.958       .  S
Co52         O54   2.107       .  S
Co53         O54   2.123       .  S
C55        C1563   1.491       .  S
C56        C1474   1.504       .  S
C57        C1594   1.490       .  S
C58        C1523   1.503       .  S
O59          C67   1.272       .  A
O59         Co79   1.988       .  S
O60          C68   1.271       .  A
O60         Co80   1.898       .  S
O61          C69   1.273       .  A
O61         Co81   2.008       .  S
O62          C70   1.265       .  A
O62         Co82   1.997       .  S
O63          C69   1.284       .  A
O63         Co80   2.021       .  S
O64          C70   1.269       .  A
O64         Co79   1.988       .  S
O65          C68   1.298       .  A
O65         Co82   2.116       .  S
O66          C67   1.275       .  A
O66         Co81   2.003       .  S
C67        C1423   1.478       .  S
C68        C1354   1.480       .  S
C69        C1334   1.508       .  S
C70        C1403   1.491       .  S
O71          C84   1.275       .  A
O71         Co79   2.016       .  S
O72          C85   1.262       .  A
O72         Co80   1.968       .  S
O73          C86   1.275       .  A
O73         Co81   2.002       .  S
O74          C87   1.269       .  A
O74         Co82   1.904       .  S
O75          C87   1.300       .  A
O75         Co80   2.139       .  S
O76          C86   1.270       .  A
O76         Co79   1.988       .  S
O77          C84   1.278       .  A
O77         Co82   2.000       .  S
O78          C85   1.275       .  A
O78         Co81   2.002       .  S
Co79         O83   2.040       .  S
Co80         O83   1.999       .  S
Co81         O83   2.044       .  S
Co82         O83   2.003       .  S
C84        C1383   1.481       .  S
C85        C1303   1.479       .  S
C86        C1443   1.491       .  S
C87        C1374   1.493       .  S
C88        C1283   1.491       .  S
C88          C89   1.407       .  A
C88          C93   1.406   1_565  A
C89        C1263   1.479       .  S
C89          C90   1.416       .  A
C90        C1214   1.482       .  S
C90          C91   1.416   1_554  A
C91        C1183   1.489   1_565  S
C91          C92   1.413   1_565  A
C92        C1243   1.486       .  S
C92          C93   1.412   1_556  A
C93        C1223   1.471   1_554  S
C94        C1323   1.519       .  S
C94          N95   1.375       .  A
C94          N99   1.365       .  A
N95          C96   1.373   1_565  A
C96        C1163   1.495       .  S
C96          N97   1.356       .  A
N97          C98   1.352   1_545  A
C98        C1294   1.490       .  S
C98          N99   1.356       .  A
C100       C1514   1.461       .  S
C100        N101   1.355       .  A
C100        N105   1.362       .  A
N101        C102   1.349       .  A
C102       C1234   1.462       .  S
C102        N103   1.352   1_556  A
N103        C104   1.355       .  A
C104       C1143   1.478       .  S
C104        N105   1.361   1_554  A
C106       C1694   1.509       .  S
C106        N107   1.372       .  A
C106        N111   1.356       .  A
N107        C108   1.374   1_565  A
C108       C1123   1.499       .  S
C108        N109   1.362       .  A
N109        C110   1.354       .  A
C110       C1194   1.491       .  S
C110        N111   1.350   1_545  A
C112       C1554   1.503       .  S
C112        N113   1.360       .  A
C112        N117   1.370       .  A
N113        C114   1.351       .  A
C114       C1254   1.483       .  S
C114        N115   1.353       .  A
N115        C116   1.360       .  A
C116       C1103   1.499       .  S
C116        N117   1.371       .  A
C118       C1083   1.480       .  S
C118        N119   1.364       .  A
C118        N123   1.355       .  A
N119        C120   1.364       .  A
C120       C1434   1.472       .  S
C120        N121   1.355       .  A
N121        C122   1.353       .  A
C122       C1274   1.478       .  S
C122        N123   1.354       .  A
C124       C1063   1.484       .  S
C124        N125   1.367       .  A
C124        N129   1.358       .  A
N125        C126   1.366   1_554  A
C126       C1634   1.485       .  S
C126        N127   1.357       .  A
N127        C128   1.352   1_556  A
C128       C1203   1.464       .  S
C128        N129   1.350       .  A
C130        C963   1.496       .  S
C130        C131   1.420   1_554  A
C130        C135   1.416   1_455  A
C131        C943   1.489       .  S
C131        C132   1.419   1_455  A
C132       C1054   1.497       .  S
C132        C133   1.417   1_556  A
C133       C1023   1.493       .  S
C133        C134   1.421       .  A
C134       C1003   1.494       .  S
C134        C135   1.420       .  A
C135        C983   1.491       .  S
C136       C1654   1.499       .  S
C136        N137   1.369       .  A
C136        N141   1.361       .  A
N137        C138   1.367   1_556  A
C138        C934   1.495       .  S
C138        N139   1.359       .  A
N139        C140   1.354       .  A
C140        C974   1.490       .  S
C140        N141   1.358   1_554  A
C142       C1763   1.489       .  S
C142        N143   1.358       .  A
C142        N147   1.367       .  A
N143        C144   1.350       .  A
C144        C954   1.491       .  S
C144        N145   1.354       .  A
N145        C146   1.359       .  A
C146        C903   1.498       .  S
C146        N147   1.366       .  A
C148       C1343   1.473       .  S
C148        N149   1.361       .  A
C148        N153   1.358       .  A
N149        C150   1.361   1_655  A
C150        C883   1.476       .  S
C150        N151   1.358       .  A
N151        C152   1.357   1_455  A
C152        C994   1.476       .  S
C152        N153   1.358       .  A
C154        C874   1.483       .  S
C154        N155   1.367       .  A
C154        N159   1.362       .  A
N155        C156   1.365       .  A
C156       C1414   1.488       .  S
C156        N157   1.357       .  A
N157        C158   1.357       .  A
C158       C1014   1.492       .  S
C158        N159   1.358       .  A
C160        C854   1.495       .  S
C160        N161   1.372       .  A
C160        N165   1.361       .  A
N161        C162   1.372   1_455  A
C162       C1463   1.510       .  S
C162        N163   1.359       .  A
N163        C164   1.352   1_655  A
C164       C1043   1.475       .  S
C164        N165   1.355       .  A
C166        C823   1.503       .  S
C166        N167   1.372       .  A
C166        N171   1.359       .  A
N167        C168   1.372   1_554  A
C168       C1534   1.491       .  S
C168        N169   1.358       .  A
N169        C170   1.356   1_556  A
C170       C1034   1.485       .  S
C170        N171   1.354       .  A
C172        C783   1.478       .  S
C172        C173   1.416       .  A
C172        C177   1.419       .  A
C173        C803   1.501       .  S
C173        C174   1.415       .  A
C174        C723   1.478       .  S
C174        C175   1.415       .  A
C175        C714   1.493       .  S
C175        C176   1.415       .  A
C176        C754   1.486       .  S
C176        C177   1.417       .  A
C177        C774   1.500       .  S
C178        C683   1.507       .  S
C178        N179   1.361       .  A
C178        N183   1.370       .  A
N179        C180   1.355       .  A
C180        C814   1.487       .  S
C180        N181   1.356       .  A
N181        C182   1.362       .  A
C182       C1574   1.495       .  S
C182        N183   1.370       .  A
C184        C663   1.493       .  S
C184        N185   1.366       .  A
C184        N189   1.360       .  A
N185        C186   1.364       .  A
C186       C1714   1.478       .  S
C186        N187   1.357       .  A
N187        C188   1.356       .  A
C188        C703   1.494       .  S
C188        N189   1.359       .  A
C190        C654   1.509       .  S
C190        N191   1.362       .  A
C190        N195   1.369       .  A
N191        C192   1.354       .  A
C192        C763   1.473       .  S
C192        N193   1.355       .  A
N193        C194   1.359       .  A
C194       C1394   1.488       .  S
C194        N195   1.369       .  A
C196        C623   1.485       .  S
C196        N197   1.370       .  A
C196        N201   1.359       .  A
N197        C198   1.369       .  A
C198       C1454   1.504       .  S
C198        N199   1.356       .  A
N199        C200   1.352       .  A
C200        C743   1.487       .  S
C200        N201   1.351       .  A
C202        C614   1.504       .  S
C202        N203   1.359       .  A
C202        N207   1.370       .  A
N203        C204   1.351       .  A
C204        C734   1.464       .  S
C204        N205   1.349       .  A
N205        C206   1.354       .  A
C206       C1743   1.495       .  S
C206        N207   1.370       .  A
C208        C583   1.479       .  S
C208        N209   1.358       .  A
C208        N213   1.368       .  A
N209        C210   1.351       .  A
C210        C794   1.462       .  S
C210        N211   1.348       .  A
N211        C212   1.354       .  A
C212       C1583   1.497       .  S
C212        N213   1.366       .  A
C214        C534   1.482       .  S
C214        C215   1.414       .  A
C214        C219   1.421   1_455  A
C215        C543   1.502       .  S
C215        C216   1.414   1_545  A
C216        C563   1.470       .  S
C216        C217   1.413       .  A
C217        C463   1.508       .  S
C217        C218   1.418   1_465  A
C218        C494   1.481   1_545  S
C218        C219   1.425       .  A
C219        C503   1.503       .  S
C220       C1483   1.501       .  S
C220        N221   1.367   1_655  A
C220        N225   1.361       .  A
N221        C222   1.367       .  A
C222        C454   1.485       .  S
C222        N223   1.354       .  A
N223        C224   1.349       .  A
C224        C523   1.470       .  S
C224        N225   1.353   1_455  A
C226        C434   1.489       .  S
C226        N227   1.363       .  A
C226        N231   1.365       .  A
N227        C228   1.361       .  A
C228        C554   1.482       .  S
C228        N229   1.358   1_545  A
N229        C230   1.361       .  A
C230       C1674   1.495       .  S
C230        N231   1.366   1_565  A
C232       C1734   1.491       .  S
C232        N233   1.357       .  A
C232        N237   1.368       .  A
N233        C234   1.354       .  A
C234        C574   1.475       .  S
C234        N235   1.349       .  A
N235        C236   1.353       .  A
C236        C403   1.482       .  S
C236        N237   1.367       .  A
C238       C1614   1.488       .  S
C238        N239   1.370       .  A
C238        N243   1.360       .  A
N239        C240   1.369       .  A
C240        C383   1.501       .  S
C240        N241   1.360       .  A
N241        C242   1.357       .  A
C242        C514   1.494       .  S
C242        N243   1.358       .  A
C244       C1314   1.485       .  S
C244        N245   1.368       .  A
C244        N249   1.357       .  A
N245        C246   1.369   1_565  A
C246        C363   1.500       .  S
C246        N247   1.354       .  A
N247        C248   1.351   1_545  A
C248        C483   1.469       .  S
C248        N249   1.348       .  A
C250       C1363   1.487       .  S
C250        N251   1.362       .  A
C250        N255   1.363   1_655  A
N251        C252   1.364   1_655  A
C252        C474   1.504       .  S
C252        N253   1.361       .  A
N253        C254   1.364       .  A
C254        C354   1.508       .  S
C254        N255   1.363       .  A
O256        C264   1.264       .  A
O256       Co276   2.006       .  S
O257        C265   1.271       .  A
O257       Co277   1.984       .  S
O258        C266   1.273       .  A
O258       Co278   1.975       .  S
O259        C267   1.289       .  A
O259       Co279   2.054       .  S
O260        C266   1.281       .  A
O260       Co277   2.011       .  S
O261        C267   1.266       .  A
O261       Co276   2.001       .  S
O262        C265   1.293       .  A
O262       Co279   2.070       .  S
O263        C264   1.258       .  A
O263       Co278   1.984       .  S
C264        C423   1.493       .  S
C265        C603   1.503       .  S
C266        C443   1.481       .  S
C267        C694   1.495       .  S
O268        C281   1.268       .  A
O268       Co276   1.857       .  S
O269        C282   1.263       .  A
O269       Co277   1.983       .  S
O270        C283   1.279       .  A
O270       Co278   1.904       .  S
O271        C284   1.275       .  A
O271       Co279   1.909       .  S
O272        C284   1.298       .  A
O272       Co277   2.089       .  S
O273        C283   1.303       .  A
O273       Co276   2.087       .  S
O274        C281   1.312       .  A
O274       Co279   2.141       .  S
O275        C282   1.274       .  A
O275       Co278   2.016       .  S
Co276       O280   1.989       .  S
Co277       O280   2.089       .  S
Co278       O280   1.915       .  S
Co279       O280   1.968       .  S
C281       C1114   1.484       .  S
C282        C843   1.492       .  S
C283       C1134   1.505       .  S
C284        C914   1.483       .  S
O285        C293   1.269       .  A
O285       Co305   1.987       .  S
O286        C294   1.295       .  A
O286       Co306   2.048       .  S
O287        C295   1.273       .  A
O287       Co307   1.989       .  S
O288        C296   1.260       .  A
O288       Co308   1.977       .  S
O289        C295   1.287       .  A
O289       Co306   2.059       .  S
O290        C296   1.262       .  A
O290       Co305   2.031       .  S
O291        C294   1.270       .  A
O291       Co308   2.012       .  S
O292        C293   1.276       .  A
O292       Co307   2.004       .  S
C293        C374   1.486       .  S
C294        C863   1.480       .  S
C295        C834   1.503       .  S
C296        C394   1.494       .  S
O297        C310   1.277       .  A
O297       Co305   1.902       .  S
O298        C311   1.273       .  A
O298       Co306   1.911       .  S
O299        C312   1.271       .  A
O299       Co307   1.998       .  S
O300        C313   1.246       .  A
O300       Co308   1.970       .  S
O301        C313   1.264       .  A
O301       Co306   2.040       .  S
O302        C312   1.275       .  A
O302       Co305   1.989       .  S
O303        C310   1.298       .  A
O303       Co308   2.089       .  S
O304        C311   1.293       .  A
O304       Co307   2.081       .  S
Co305       O309   1.959       .  S
Co306       O309   1.966       .  S
Co307       O309   2.102       .  S
Co308       O309   2.102       .  S
C310        C594   1.472       .  S
C311       C1154   1.489       .  S
C312       C1174   1.478       .  S
C313        C643   1.498       .  S
O314        C322   1.275       .  A
O314       Co334   1.986       .  S
O315        C323   1.266       .  A
O315       Co335   1.891       .  S
O316        C324   1.275       .  A
O316       Co336   2.010       .  S
O317        C325   1.264       .  A
O317       Co337   1.983       .  S
O318        C324   1.275       .  A
O318       Co335   1.990       .  S
O319        C325   1.276       .  A
O319       Co334   2.005       .  S
O320        C323   1.299       .  A
O320       Co337   2.128       .  S
O321        C322   1.273       .  A
O321       Co336   2.010       .  S
C322        C634   1.485       .  S
C323        C894   1.476       .  S
C324        C674   1.478       .  S
C325        C923   1.487       .  S
O326        C339   1.269       .  A
O326       Co334   1.987       .  S
O327        C340   1.262       .  A
O327       Co335   1.986       .  S
O328        C341   1.268       .  A
O328       Co336   1.984       .  S
O329        C342   1.268       .  A
O329       Co337   1.907       .  S
O330        C342   1.299       .  A
O330       Co335   2.120       .  S
O331        C341   1.272       .  A
O331       Co334   2.001       .  S
O332        C339   1.279       .  A
O332       Co337   2.001       .  S
O333        C340   1.266       .  A
O333       Co336   1.991       .  S
Co334       O338   2.047       .  S
Co335       O338   2.006       .  S
Co336       O338   2.044       .  S
Co337       O338   2.002       .  S
C339       C1074   1.480       .  S
C340        C414   1.476       .  S
C341       C1094   1.475       .  S
C342        C343   1.497       .  S
C343        C344   1.419       .  A
C343        C348   1.408       .  A
C344        C345   1.412       .  A
C344       Br360   1.920       .  S
C345        C346   1.406       .  A
C345        H349   1.083       .  S
C346        C350   1.489       .  S
C346        C347   1.405       .  A
C347        C348   1.396       .  A
C347       Br359   1.920       .  S
C348        H351   1.083       .  S
C350        C352   1.402       .  A
C350        C356   1.405       .  A
C352        C353   1.407       .  A
C352        H357   1.083       .  S
C353        C354   1.424       .  A
C353       Br361   1.921       .  S
C354        C355   1.413       .  A
C355        C356   1.402       .  A
C355        H358   1.082       .  S
C356       Br362   1.918       .  S
C363        C364   1.428       .  A
C363        C368   1.411       .  A
C364        C365   1.397       .  A
C364       Br380   1.927       .  S
C365        C366   1.394       .  A
C365        H369   1.084       .  S
C366        C370   1.479       .  S
C366        C367   1.406       .  A
C367        C368   1.404       .  A
C367       Br379   1.917       .  S
C368        H371   1.083       .  S
C370        C372   1.403       .  A
C370        C376   1.404       .  A
C372        C373   1.405       .  A
C372        H377   1.083       .  S
C373        C374   1.414       .  A
C373       Br381   1.919       .  S
C374        C375   1.409       .  A
C375        C376   1.395       .  A
C375        H378   1.084       .  S
C376       Br382   1.920       .  S
C383        C384   1.417       .  A
C383        C388   1.411       .  A
C384        C385   1.411       .  A
C384       Br400   1.918       .  S
C385        C386   1.407       .  A
C385        H389   1.083       .  S
C386        C390   1.493       .  S
C386        C387   1.404       .  A
C387        C388   1.401       .  A
C387       Br399   1.918       .  S
C388        H391   1.083       .  S
C390        C392   1.402       .  A
C390        C396   1.409       .  A
C392        C393   1.407       .  A
C392        H397   1.083       .  S
C393        C394   1.417       .  A
C393       Br401   1.917       .  S
C394        C395   1.409       .  A
C395        C396   1.405       .  A
C395        H398   1.084       .  S
C396       Br402   1.918       .  S
C403        C404   1.417       .  A
C403        C408   1.403       .  A
C404        C405   1.399       .  A
C404       Br420   1.922       .  S
C405        C406   1.398       .  A
C405        H409   1.084       .  S
C406        C410   1.479       .  S
C406        C407   1.409       .  A
C407        C408   1.401       .  A
C407       Br419   1.917       .  S
C408        H411   1.083       .  S
C410        C412   1.402       .  A
C410        C416   1.407       .  A
C412        C413   1.403       .  A
C412        H417   1.083       .  S
C413        C414   1.412       .  A
C413       Br421   1.919       .  S
C414        C415   1.404       .  A
C415        C416   1.398       .  A
C415        H418   1.083       .  S
C416       Br422   1.919       .  S
C423        C424   1.415       .  A
C423        C428   1.408       .  A
C424        C425   1.404       .  A
C424       Br440   1.919       .  S
C425        C426   1.403       .  A
C425        H429   1.083       .  S
C426        C430   1.495       .  S
C426        C427   1.410       .  A
C427        C428   1.408       .  A
C427       Br439   1.913       .  S
C428        H431   1.083       .  S
C430        C432   1.404       .  A
C430        C436   1.413       .  A
C432        C433   1.406       .  A
C432        H437   1.083       .  S
C433        C434   1.412       .  A
C433       Br441   1.918       .  S
C434        C435   1.404       .  A
C435        C436   1.406       .  A
C435        H438   1.083       .  S
C436       Br442   1.917       .  S
C443        C444   1.413       .  A
C443        C448   1.407       .  A
C444        C445   1.406       .  A
C444       Br460   1.918       .  S
C445        C446   1.404       .  A
C445        H449   1.083       .  S
C446        C450   1.477       .  S
C446        C447   1.404       .  A
C447        C448   1.393       .  A
C447       Br459   1.921       .  S
C448        H451   1.084       .  S
C450        C452   1.397       .  A
C450        C456   1.409       .  A
C452        C453   1.398       .  A
C452        H457   1.084       .  S
C453        C454   1.420       .  A
C453       Br461   1.924       .  S
C454        C455   1.405       .  A
C455        C456   1.402       .  A
C455        H458   1.083       .  S
C456       Br462   1.919       .  S
C463        C464   1.411       .  A
C463        C468   1.405   1_455  A
C464        C465   1.407       .  A
C464       Br480   1.915       .  S
C465        C466   1.406       .  A
C465        H469   1.083       .  S
C466        C470   1.497       .  S
C466        C467   1.411   1_455  A
C467        C468   1.404       .  A
C467       Br479   1.918       .  S
C468        H471   1.081       .  S
C470        C472   1.404       .  A
C470        C476   1.410   1_455  A
C472        C473   1.408       .  A
C472        H477   1.084       .  S
C473        C474   1.421       .  A
C473       Br481   1.922       .  S
C474        C475   1.409   1_455  A
C475        C476   1.405       .  A
C475        H478   1.083       .  S
C476       Br482   1.919       .  S
C483        C484   1.412       .  A
C483        C488   1.402   1_565  A
C484        C485   1.398       .  A
C484       Br500   1.920       .  S
C485        C486   1.401       .  A
C485        H489   1.082       .  S
C486        C490   1.470       .  S
C486        C487   1.404   1_565  A
C487        C488   1.392       .  A
C487       Br499   1.916       .  S
C488        H491   1.084       .  S
C490        C492   1.403   1_565  A
C490        C496   1.404       .  A
C492        C493   1.395       .  A
C492        H497   1.084       .  S
C493        C494   1.408   1_545  A
C493       Br501   1.916       .  S
C494        C495   1.404       .  A
C495        C496   1.393       .  A
C495        H498   1.083       .  S
C496       Br502   1.918       .  S
C503        C504   1.414       .  A
C503        C508   1.408       .  A
C504        C505   1.403       .  A
C504       Br520   1.915       .  S
C505        C506   1.402       .  A
C505        H509   1.083       .  S
C506        C510   1.485       .  S
C506        C507   1.406       .  A
C507        C508   1.401       .  A
C507       Br519   1.917       .  S
C508        H511   1.083       .  S
C510        C512   1.401       .  A
C510        C516   1.405       .  A
C512        C513   1.404       .  A
C512        H517   1.080       .  S
C513        C514   1.417       .  A
C513       Br521   1.921       .  S
C514        C515   1.410       .  A
C515        C516   1.401       .  A
C515        H518   1.083       .  S
C516       Br522   1.916       .  S
C523        C524   1.410       .  A
C523        C528   1.403   1_455  A
C524        C525   1.397       .  A
C524       Br540   1.919       .  S
C525        C526   1.400       .  A
C525        H529   1.084       .  S
C526        C530   1.470       .  S
C526        C527   1.405   1_455  A
C527        C528   1.397       .  A
C527       Br539   1.913       .  S
C528        H531   1.084       .  S
C530        C532   1.400   1_455  A
C530        C536   1.406       .  A
C532        C533   1.395       .  A
C532        H537   1.084       .  S
C533        C534   1.407   1_655  A
C533       Br541   1.915       .  S
C534        C535   1.403       .  A
C535        C536   1.398       .  A
C535        H538   1.082       .  S
C536       Br542   1.917       .  S
C543        C544   1.410       .  A
C543        C548   1.404   1_545  A
C544        C545   1.405       .  A
C544       Br560   1.917       .  S
C545        C546   1.406       .  A
C545        H549   1.083       .  S
C546        C550   1.498       .  S
C546        C547   1.413   1_545  A
C547        C548   1.404       .  A
C547       Br559   1.919       .  S
C548        H551   1.081       .  S
C550        C552   1.407       .  A
C550        C556   1.414   1_545  A
C552        C553   1.404       .  A
C552        H557   1.083       .  S
C553        C554   1.408       .  A
C553       Br561   1.918       .  S
C554        C555   1.403   1_545  A
C555        C556   1.406       .  A
C555        H558   1.084       .  S
C556       Br562   1.918       .  S
C563        C564   1.405       .  A
C563        C568   1.399       .  A
C564        C565   1.392       .  A
C564       Br580   1.919       .  S
C565        C566   1.402       .  A
C565        H569   1.084       .  S
C566        C570   1.468       .  S
C566        C567   1.408       .  A
C567        C568   1.393       .  A
C567       Br579   1.919       .  S
C568        H571   1.082       .  S
C570        C572   1.400       .  A
C570        C576   1.405       .  A
C572        C573   1.395       .  A
C572        H577   1.084       .  S
C573        C574   1.416       .  A
C573       Br581   1.923       .  S
C574        C575   1.405       .  A
C575        C576   1.392       .  A
C575        H578   1.083       .  S
C576       Br582   1.920       .  S
C583        C584   1.414       .  A
C583        C588   1.403       .  A
C584        C585   1.398       .  A
C584       Br600   1.922       .  S
C585        C586   1.400       .  A
C585        H589   1.084       .  S
C586        C590   1.480       .  S
C586        C587   1.411       .  A
C587        C588   1.402       .  A
C587       Br599   1.919       .  S
C588        H591   1.083       .  S
C590        C592   1.401       .  A
C590        C596   1.410       .  A
C592        C593   1.394       .  A
C592        H597   1.084       .  S
C593        C594   1.410       .  A
C593       Br601   1.921       .  S
C594        C595   1.404       .  A
C595        C596   1.403       .  A
C595        H598   1.083       .  S
C596       Br602   1.917       .  S
C603        C604   1.420       .  A
C603        C608   1.411       .  A
C604        C605   1.410       .  A
C604       Br620   1.919       .  S
C605        C606   1.405       .  A
C605        H609   1.083       .  S
C606        C610   1.487       .  S
C606        C607   1.402       .  A
C607        C608   1.396       .  A
C607       Br619   1.920       .  S
C608        H611   1.078       .  S
C610        C612   1.405       .  A
C610        C616   1.402       .  A
C612        C613   1.407       .  A
C612        H617   1.084       .  S
C613        C614   1.419       .  A
C613       Br621   1.920       .  S
C614        C615   1.416       .  A
C615        C616   1.399       .  A
C615        H618   1.082       .  S
C616       Br622   1.919       .  S
C623        C624   1.411       .  A
C623        C628   1.408       .  A
C624        C625   1.404       .  A
C624       Br640   1.916       .  S
C625        C626   1.406       .  A
C625        H629   1.083       .  S
C626        C630   1.487       .  S
C626        C627   1.406       .  A
C627        C628   1.400       .  A
C627       Br639   1.918       .  S
C628        H631   1.084       .  S
C630        C632   1.404       .  A
C630        C636   1.407       .  A
C632        C633   1.407       .  A
C632        H637   1.084       .  S
C633        C634   1.416       .  A
C633       Br641   1.920       .  S
C634        C635   1.405       .  A
C635        C636   1.397       .  A
C635        H638   1.086       .  S
C636       Br642   1.920       .  S
C643        C644   1.421       .  A
C643        C648   1.409       .  A
C644        C645   1.396       .  A
C644       Br660   1.919       .  S
C645        C646   1.397       .  A
C645        H649   1.084       .  S
C646        C650   1.493       .  S
C646        C647   1.412       .  A
C647        C648   1.413       .  A
C647       Br659   1.915       .  S
C648        H651   1.083       .  S
C650        C652   1.406       .  A
C650        C656   1.406       .  A
C652        C653   1.413       .  A
C652        H657   1.083       .  S
C653        C654   1.422       .  A
C653       Br661   1.919       .  S
C654        C655   1.412       .  A
C655        C656   1.398       .  A
C655        H658   1.082       .  S
C656       Br662   1.921       .  S
C663        C664   1.419       .  A
C663        C668   1.407       .  A
C664        C665   1.403       .  A
C664       Br680   1.921       .  S
C665        C666   1.401       .  A
C665        H669   1.084       .  S
C666        C670   1.488       .  S
C666        C667   1.410       .  A
C667        C668   1.404       .  A
C667       Br679   1.918       .  S
C668        H671   1.083       .  S
C670        C672   1.406       .  A
C670        C676   1.408       .  A
C672        C673   1.406       .  A
C672        H677   1.085       .  S
C673        C674   1.411       .  A
C673       Br681   1.917       .  S
C674        C675   1.399       .  A
C675        C676   1.398       .  A
C675        H678   1.089       .  S
C676       Br682   1.917       .  S
C683        C684   1.420       .  A
C683        C688   1.414       .  A
C684        C685   1.411       .  A
C684       Br700   1.920       .  S
C685        C686   1.406       .  A
C685        H689   1.083       .  S
C686        C690   1.489       .  S
C686        C687   1.402       .  A
C687        C688   1.398       .  A
C687       Br699   1.920       .  S
C688        H691   1.081       .  S
C690        C692   1.397       .  A
C690        C696   1.410       .  A
C692        C693   1.400       .  A
C692        H697   1.084       .  S
C693        C694   1.422       .  A
C693       Br701   1.924       .  S
C694        C695   1.407       .  A
C695        C696   1.408       .  A
C695        H698   1.083       .  S
C696       Br702   1.916       .  S
C703        C704   1.420       .  A
C703        C708   1.410       .  A
C704        C705   1.402       .  A
C704       Br720   1.923       .  S
C705        C706   1.400       .  A
C705        H709   1.084       .  S
C706        C710   1.481       .  S
C706        C707   1.405       .  A
C707        C708   1.400       .  A
C707       Br719   1.920       .  S
C708        H711   1.083       .  S
C710        C712   1.404       .  A
C710        C716   1.406       .  A
C712        C713   1.402       .  A
C712        H717   1.083       .  S
C713        C714   1.409       .  A
C713       Br721   1.916       .  S
C714        C715   1.403       .  A
C715        C716   1.398       .  A
C715        H718   1.081       .  S
C716       Br722   1.917       .  S
C723        C724   1.409       .  A
C723        C728   1.400       .  A
C724        C725   1.397       .  A
C724       Br740   1.918       .  S
C725        C726   1.399       .  A
C725        H729   1.083       .  S
C726        C730   1.466       .  S
C726        C727   1.405       .  A
C727        C728   1.393       .  A
C727       Br739   1.918       .  S
C728        H731   1.082       .  S
C730        C732   1.400       .  A
C730        C736   1.405       .  A
C732        C733   1.396       .  A
C732        H737   1.084       .  S
C733        C734   1.408       .  A
C733       Br741   1.919       .  S
C734        C735   1.402       .  A
C735        C736   1.397       .  A
C735        H738   1.084       .  S
C736       Br742   1.919       .  S
C743        C744   1.420       .  A
C743        C748   1.409       .  A
C744        C745   1.401       .  A
C744       Br760   1.922       .  S
C745        C746   1.399       .  A
C745        H749   1.084       .  S
C746        C750   1.469       .  S
C746        C747   1.402       .  A
C747        C748   1.391       .  A
C747       Br759   1.921       .  S
C748        H751   1.083       .  S
C750        C752   1.400       .  A
C750        C756   1.405       .  A
C752        C753   1.399       .  A
C752        H757   1.083       .  S
C753        C754   1.412       .  A
C753       Br761   1.918       .  S
C754        C755   1.401       .  A
C755        C756   1.391       .  A
C755        H758   1.080       .  S
C756       Br762   1.919       .  S
C763        C764   1.407       .  A
C763        C768   1.403       .  A
C764        C765   1.400       .  A
C764       Br780   1.917       .  S
C765        C766   1.403       .  A
C765        H769   1.084       .  S
C766        C770   1.481       .  S
C766        C767   1.410       .  A
C767        C768   1.401       .  A
C767       Br779   1.919       .  S
C768        H771   1.084       .  S
C770        C772   1.402       .  A
C770        C776   1.407       .  A
C772        C773   1.401       .  A
C772        H777   1.083       .  S
C773        C774   1.414       .  A
C773       Br781   1.919       .  S
C774        C775   1.406       .  A
C775        C776   1.399       .  A
C775        H778   1.082       .  S
C776       Br782   1.918       .  S
C783        C784   1.410       .  A
C783        C788   1.401       .  A
C784        C785   1.395       .  A
C784       Br800   1.914       .  S
C785        C786   1.399       .  A
C785        H789   1.084       .  S
C786        C790   1.465       .  S
C786        C787   1.405       .  A
C787        C788   1.392       .  A
C787       Br799   1.918       .  S
C788        H791   1.083       .  S
C790        C792   1.398       .  A
C790        C796   1.407       .  A
C792        C793   1.390       .  A
C792        H797   1.084       .  S
C793        C794   1.409       .  A
C793       Br801   1.921       .  S
C794        C795   1.402       .  A
C795        C796   1.399       .  A
C795        H798   1.083       .  S
C796       Br802   1.919       .  S
C803        C804   1.410       .  A
C803        C808   1.407       .  A
C804        C805   1.402       .  A
C804       Br820   1.909       .  S
C805        C806   1.402       .  A
C805        H809   1.083       .  S
C806        C810   1.486       .  S
C806        C807   1.408       .  A
C807        C808   1.403       .  A
C807       Br819   1.917       .  S
C808        H811   1.083       .  S
C810        C812   1.401       .  A
C810        C816   1.409       .  A
C812        C813   1.401       .  A
C812        H817   1.084       .  S
C813        C814   1.415       .  A
C813       Br821   1.920       .  S
C814        C815   1.407       .  A
C815        C816   1.405       .  A
C815        H818   1.083       .  S
C816       Br822   1.918       .  S
C823        C824   1.415       .  A
C823        C828   1.414       .  A
C824        C825   1.408       .  A
C824       Br840   1.914       .  S
C825        C826   1.406       .  A
C825        H829   1.084       .  S
C826        C830   1.494       .  S
C826        C827   1.405       .  A
C827        C828   1.404       .  A
C827       Br839   1.918       .  S
C828        H831   1.083       .  S
C830        C832   1.406       .  A
C830        C836   1.406       .  A
C832        C833   1.411       .  A
C832        H837   1.083       .  S
C833        C834   1.418       .  A
C833       Br841   1.918       .  S
C834        C835   1.412       .  A
C835        C836   1.399       .  A
C835        H838   1.080       .  S
C836       Br842   1.920       .  S
C843        C844   1.414       .  A
C843        C848   1.408       .  A
C844        C845   1.412       .  A
C844       Br860   1.915       .  S
C845        C846   1.407       .  A
C845        H849   1.083       .  S
C846        C850   1.497       .  S
C846        C847   1.409       .  A
C847        C848   1.403       .  A
C847       Br859   1.919       .  S
C848        H851   1.084       .  S
C850        C852   1.402       .  A
C850        C856   1.413       .  A
C852        C853   1.407       .  A
C852        H857   1.083       .  S
C853        C854   1.417       .  A
C853       Br861   1.920       .  S
C854        C855   1.405       .  A
C855        C856   1.408       .  A
C855        H858   1.083       .  S
C856       Br862   1.918       .  S
C863        C864   1.409       .  A
C863        C868   1.404       .  A
C864        C865   1.409       .  A
C864       Br880   1.917       .  S
C865        C866   1.409       .  A
C865        H869   1.083       .  S
C866        C870   1.486       .  S
C866        C867   1.406       .  A
C867        C868   1.393       .  A
C867       Br879   1.920       .  S
C868        H871   1.083       .  S
C870        C872   1.403       .  A
C870        C876   1.410       .  A
C872        C873   1.399       .  A
C872        H877   1.084       .  S
C873        C874   1.411       .  A
C873       Br881   1.917       .  S
C874        C875   1.405       .  A
C875        C876   1.406       .  A
C875        H878   1.083       .  S
C876       Br882   1.917       .  S
C883        C884   1.412       .  A
C883        C888   1.402       .  A
C884        C885   1.401       .  A
C884       Br900   1.920       .  S
C885        C886   1.403       .  A
C885        H889   1.083       .  S
C886        C890   1.484       .  S
C886        C887   1.412       .  A
C887        C888   1.400       .  A
C887       Br899   1.921       .  S
C888        H891   1.084       .  S
C890        C892   1.405       .  A
C890        C896   1.410       .  A
C892        C893   1.402       .  A
C892        H897   1.083       .  S
C893        C894   1.408       .  A
C893       Br901   1.919       .  S
C894        C895   1.404       .  A
C895        C896   1.399       .  A
C895        H898   1.083       .  S
C896       Br902   1.920       .  S
C903        C904   1.418       .  A
C903        C908   1.411       .  A
C904        C905   1.407       .  A
C904       Br920   1.918       .  S
C905        C906   1.406       .  A
C905        H909   1.083       .  S
C906        C910   1.487       .  S
C906        C907   1.405       .  A
C907        C908   1.395       .  A
C907       Br919   1.921       .  S
C908        H911   1.083       .  S
C910        C912   1.408       .  A
C910        C916   1.408       .  A
C912        C913   1.406       .  A
C912        H917   1.083       .  S
C913        C914   1.410       .  A
C913       Br921   1.917       .  S
C914        C915   1.406       .  A
C915        C916   1.397       .  A
C915        H918   1.084       .  S
C916       Br922   1.920       .  S
C923        C924   1.416       .  A
C923        C928   1.408       .  A
C924        C925   1.399       .  A
C924       Br940   1.921       .  S
C925        C926   1.400       .  A
C925        H929   1.084       .  S
C926        C930   1.488       .  S
C926        C927   1.409       .  A
C927        C928   1.408       .  A
C927       Br939   1.916       .  S
C928        H931   1.083       .  S
C930        C932   1.406       .  A
C930        C936   1.404       .  A
C932        C933   1.409       .  A
C932        H937   1.083       .  S
C933        C934   1.416       .  A
C933       Br941   1.919       .  S
C934        C935   1.409       .  A
C935        C936   1.399       .  A
C935        H938   1.083       .  S
C936       Br942   1.918       .  S
C943        C944   1.409       .  A
C943        C948   1.404       .  A
C944        C945   1.396       .  A
C944       Br960   1.917   1_455  S
C945        C946   1.402       .  A
C945        H949   1.084       .  S
C946        C950   1.477       .  S
C946        C947   1.408       .  A
C947        C948   1.396       .  A
C947       Br959   1.920       .  S
C948        H951   1.082       .  S
C950        C952   1.400       .  A
C950        C956   1.405       .  A
C952        C953   1.397       .  A
C952        H957   1.084       .  S
C953        C954   1.421       .  A
C953       Br961   1.923       .  S
C954        C955   1.411       .  A
C955        C956   1.396       .  A
C955        H958   1.083       .  S
C956       Br962   1.921       .  S
C963        C964   1.409   1_554  A
C963        C968   1.406       .  A
C964        C965   1.399       .  A
C964       Br980   1.911       .  S
C965        C966   1.401   1_556  A
C965        H969   1.083       .  S
C966        C970   1.482       .  S
C966        C967   1.408       .  A
C967        C968   1.402       .  A
C967       Br979   1.917       .  S
C968        H971   1.083       .  S
C970        C972   1.401       .  A
C970        C976   1.406   1_554  A
C972        C973   1.402       .  A
C972        H977   1.083       .  S
C973        C974   1.417       .  A
C973       Br981   1.922       .  S
C974        C975   1.407   1_554  A
C975        C976   1.400       .  A
C975        H978   1.080       .  S
C976       Br982   1.920       .  S
C983        C984   1.410       .  A
C983        C988   1.405   1_655  A
C984        C985   1.396       .  A
C984      Br1000   1.910       .  S
C985        C986   1.399       .  A
C985        H989   1.084       .  S
C986        C990   1.476       .  S
C986        C987   1.407   1_655  A
C987        C988   1.400       .  A
C987       Br999   1.918       .  S
C988        H991   1.083       .  S
C990        C992   1.402       .  A
C990        C996   1.407   1_655  A
C992        C993   1.400       .  A
C992        H997   1.084       .  S
C993        C994   1.411       .  A
C993      Br1001   1.919       .  S
C994        C995   1.405   1_655  A
C995        C996   1.398       .  A
C995        H998   1.084       .  S
C996      Br1002   1.919       .  S
C1003      C1004   1.413       .  A
C1003      C1008   1.407       .  A
C1004      C1005   1.396       .  A
C1004     Br1020   1.917   1_554  S
C1005      C1006   1.399       .  A
C1005      H1009   1.084       .  S
C1006      C1010   1.474       .  S
C1006      C1007   1.405       .  A
C1007      C1008   1.400       .  A
C1007     Br1019   1.917       .  S
C1008      H1011   1.083       .  S
C1010      C1012   1.398       .  A
C1010      C1016   1.403       .  A
C1012      C1013   1.399       .  A
C1012      H1017   1.084       .  S
C1013      C1014   1.418       .  A
C1013     Br1021   1.915       .  S
C1014      C1015   1.411       .  A
C1015      C1016   1.399       .  A
C1015      H1018   1.083       .  S
C1016     Br1022   1.919       .  S
C1023      C1024   1.409       .  A
C1023      C1028   1.403   1_554  A
C1024      C1025   1.401       .  A
C1024     Br1040   1.917       .  S
C1025      C1026   1.404       .  A
C1025      H1029   1.083       .  S
C1026      C1030   1.479       .  S
C1026      C1027   1.407   1_554  A
C1027      C1028   1.396       .  A
C1027     Br1039   1.919       .  S
C1028      H1031   1.080       .  S
C1030      C1032   1.400       .  A
C1030      C1036   1.408   1_554  A
C1032      C1033   1.399       .  A
C1032      H1037   1.084       .  S
C1033      C1034   1.417       .  A
C1033     Br1041   1.922       .  S
C1034      C1035   1.407   1_554  A
C1035      C1036   1.399       .  A
C1035      H1038   1.083       .  S
C1036     Br1042   1.919       .  S
C1043      C1044   1.410   1_455  A
C1043      C1048   1.404       .  A
C1044      C1045   1.400       .  A
C1044     Br1060   1.919       .  S
C1045      C1046   1.401       .  A
C1045      H1049   1.082       .  S
C1046      C1050   1.479       .  S
C1046      C1047   1.408   1_655  A
C1047      C1048   1.402       .  A
C1047     Br1059   1.919       .  S
C1048      H1051   1.083       .  S
C1050      C1052   1.402   1_655  A
C1050      C1056   1.406       .  A
C1052      C1053   1.401       .  A
C1052      H1057   1.083       .  S
C1053      C1054   1.411   1_455  A
C1053     Br1061   1.915       .  S
C1054      C1055   1.405       .  A
C1055      C1056   1.398       .  A
C1055      H1058   1.081       .  S
C1056     Br1062   1.918       .  S
C1063      C1064   1.412       .  A
C1063      C1068   1.410       .  A
C1064      C1065   1.403       .  A
C1064     Br1080   1.919       .  S
C1065      C1066   1.405       .  A
C1065      H1069   1.084       .  S
C1066      C1070   1.475       .  S
C1066      C1067   1.402       .  A
C1067      C1068   1.395       .  A
C1067     Br1079   1.919       .  S
C1068      H1071   1.083       .  S
C1070      C1072   1.392       .  A
C1070      C1076   1.408       .  A
C1072      C1073   1.389       .  A
C1072      H1077   1.085       .  S
C1073      C1074   1.420       .  A
C1073     Br1081   1.918       .  S
C1074      C1075   1.407       .  A
C1075      C1076   1.407       .  A
C1075      H1078   1.083       .  S
C1076     Br1082   1.915       .  S
C1083      C1084   1.410       .  A
C1083      C1088   1.406       .  A
C1084      C1085   1.402       .  A
C1084     Br1100   1.918       .  S
C1085      C1086   1.406       .  A
C1085      H1089   1.083       .  S
C1086      C1090   1.484       .  S
C1086      C1087   1.409       .  A
C1087      C1088   1.397       .  A
C1087     Br1099   1.921       .  S
C1088      H1091   1.084       .  S
C1090      C1092   1.411       .  A
C1090      C1096   1.407       .  A
C1092      C1093   1.407       .  A
C1092      H1097   1.083       .  S
C1093      C1094   1.407       .  A
C1093     Br1101   1.917       .  S
C1094      C1095   1.404       .  A
C1095      C1096   1.391       .  A
C1095      H1098   1.084       .  S
C1096     Br1102   1.921       .  S
C1103      C1104   1.417       .  A
C1103      C1108   1.412       .  A
C1104      C1105   1.406       .  A
C1104     Br1120   1.915       .  S
C1105      C1106   1.404       .  A
C1105      H1109   1.084       .  S
C1106      C1110   1.482       .  S
C1106      C1107   1.404       .  A
C1107      C1108   1.396       .  A
C1107     Br1119   1.921       .  S
C1108      H1111   1.083       .  S
C1110      C1112   1.395       .  A
C1110      C1116   1.411       .  A
C1112      C1113   1.391       .  A
C1112      H1117   1.084       .  S
C1113      C1114   1.418       .  A
C1113     Br1121   1.924       .  S
C1114      C1115   1.406       .  A
C1115      C1116   1.410       .  A
C1115      H1118   1.083       .  S
C1116     Br1122   1.916       .  S
C1123      C1124   1.415       .  A
C1123      C1128   1.411       .  A
C1124      C1125   1.407       .  A
C1124     Br1140   1.916       .  S
C1125      C1126   1.403       .  A
C1125      H1129   1.084       .  S
C1126      C1130   1.495       .  S
C1126      C1127   1.407       .  A
C1127      C1128   1.403       .  A
C1127     Br1139   1.918       .  S
C1128      H1131   1.085       .  S
C1130      C1132   1.403       .  A
C1130      C1136   1.408       .  A
C1132      C1133   1.409       .  A
C1132      H1137   1.083       .  S
C1133      C1134   1.420       .  A
C1133     Br1141   1.919       .  S
C1134      C1135   1.411       .  A
C1135      C1136   1.403       .  A
C1135      H1138   1.081       .  S
C1136     Br1142   1.919       .  S
C1143      C1144   1.413       .  A
C1143      C1148   1.406       .  A
C1144      C1145   1.394       .  A
C1144     Br1160   1.923       .  S
C1145      C1146   1.400       .  A
C1145      H1149   1.084       .  S
C1146      C1150   1.479       .  S
C1146      C1147   1.409       .  A
C1147      C1148   1.403       .  A
C1147     Br1159   1.917       .  S
C1148      H1151   1.083       .  S
C1150      C1152   1.397       .  A
C1150      C1156   1.408       .  A
C1152      C1153   1.394       .  A
C1152      H1157   1.084       .  S
C1153      C1154   1.421       .  A
C1153     Br1161   1.923       .  S
C1154      C1155   1.408       .  A
C1155      C1156   1.404       .  A
C1155      H1158   1.083       .  S
C1156     Br1162   1.918       .  S
C1163      C1164   1.413       .  A
C1163      C1168   1.411       .  A
C1164      C1165   1.410       .  A
C1164     Br1180   1.916       .  S
C1165      C1166   1.408       .  A
C1165      H1169   1.083       .  S
C1166      C1170   1.490       .  S
C1166      C1167   1.404       .  A
C1167      C1168   1.401       .  A
C1167     Br1179   1.918       .  S
C1168      H1171   1.084       .  S
C1170      C1172   1.405       .  A
C1170      C1176   1.408       .  A
C1172      C1173   1.405       .  A
C1172      H1177   1.083       .  S
C1173      C1174   1.409       .  A
C1173     Br1181   1.916       .  S
C1174      C1175   1.407       .  A
C1175      C1176   1.404       .  A
C1175      H1178   1.084       .  S
C1176     Br1182   1.916       .  S
C1183      C1184   1.409       .  A
C1183      C1188   1.403   1_545  A
C1184      C1185   1.400       .  A
C1184     Br1200   1.915   1_556  S
C1185      C1186   1.402       .  A
C1185      H1189   1.083       .  S
C1186      C1190   1.476       .  S
C1186      C1187   1.406   1_545  A
C1187      C1188   1.395       .  A
C1187     Br1199   1.919       .  S
C1188      H1191   1.082       .  S
C1190      C1192   1.401       .  A
C1190      C1196   1.404   1_545  A
C1192      C1193   1.402       .  A
C1192      H1197   1.083       .  S
C1193      C1194   1.418       .  A
C1193     Br1201   1.921       .  S
C1194      C1195   1.411   1_545  A
C1195      C1196   1.395       .  A
C1195      H1198   1.083       .  S
C1196     Br1202   1.921       .  S
C1203      C1204   1.408       .  A
C1203      C1208   1.402   1_554  A
C1204      C1205   1.398       .  A
C1204     Br1220   1.918       .  S
C1205      C1206   1.401       .  A
C1205      H1209   1.083       .  S
C1206      C1210   1.467       .  S
C1206      C1207   1.405   1_554  A
C1207      C1208   1.395       .  A
C1207     Br1219   1.919       .  S
C1208      H1211   1.083       .  S
C1210      C1212   1.399   1_554  A
C1210      C1216   1.404       .  A
C1212      C1213   1.395       .  A
C1212      H1217   1.084       .  S
C1213      C1214   1.410   1_556  A
C1213     Br1221   1.916       .  S
C1214      C1215   1.404       .  A
C1215      C1216   1.394       .  A
C1215      H1218   1.083       .  S
C1216     Br1222   1.917       .  S
C1223      C1224   1.407       .  A
C1223      C1228   1.399   1_556  A
C1224      C1225   1.393       .  A
C1224     Br1240   1.919   1_545  S
C1225      C1226   1.398       .  A
C1225      H1229   1.083       .  S
C1226      C1230   1.462       .  S
C1226      C1227   1.406   1_556  A
C1227      C1228   1.393       .  A
C1227     Br1239   1.918       .  S
C1228      H1231   1.082       .  S
C1230      C1232   1.401       .  A
C1230      C1236   1.403   1_556  A
C1232      C1233   1.397       .  A
C1232      H1237   1.084       .  S
C1233      C1234   1.410       .  A
C1233     Br1241   1.920       .  S
C1234      C1235   1.401   1_556  A
C1235      C1236   1.391       .  A
C1235      H1238   1.083       .  S
C1236     Br1242   1.917       .  S
C1243      C1244   1.408       .  A
C1243      C1248   1.402       .  A
C1244      C1245   1.398       .  A
C1244     Br1260   1.917   1_556  S
C1245      C1246   1.402       .  A
C1245      H1249   1.083       .  S
C1246      C1250   1.475       .  S
C1246      C1247   1.407       .  A
C1247      C1248   1.396       .  A
C1247     Br1259   1.917       .  S
C1248      H1251   1.081       .  S
C1250      C1252   1.400       .  A
C1250      C1256   1.405       .  A
C1252      C1253   1.399       .  A
C1252      H1257   1.084       .  S
C1253      C1254   1.416       .  A
C1253     Br1261   1.920       .  S
C1254      C1255   1.407       .  A
C1255      C1256   1.398       .  A
C1255      H1258   1.083       .  S
C1256     Br1262   1.919       .  S
C1263      C1264   1.408       .  A
C1263      C1268   1.401       .  A
C1264      C1265   1.394       .  A
C1264     Br1280   1.916       .  S
C1265      C1266   1.399       .  A
C1265      H1269   1.084       .  S
C1266      C1270   1.466       .  S
C1266      C1267   1.406       .  A
C1267      C1268   1.394       .  A
C1267     Br1279   1.918       .  S
C1268      H1271   1.082       .  S
C1270      C1272   1.399       .  A
C1270      C1276   1.403       .  A
C1272      C1273   1.397       .  A
C1272      H1277   1.084       .  S
C1273      C1274   1.416       .  A
C1273     Br1281   1.922       .  S
C1274      C1275   1.408       .  A
C1275      C1276   1.393       .  A
C1275      H1278   1.083       .  S
C1276     Br1282   1.921       .  S
C1283      C1284   1.409   1_565  A
C1283      C1288   1.401       .  A
C1284      C1285   1.401       .  A
C1284     Br1300   1.918       .  S
C1285      C1286   1.405   1_545  A
C1285      H1289   1.083       .  S
C1286      C1290   1.486       .  S
C1286      C1287   1.410       .  A
C1287      C1288   1.399       .  A
C1287     Br1299   1.918       .  S
C1288      H1291   1.081       .  S
C1290      C1292   1.404       .  A
C1290      C1296   1.407   1_565  A
C1292      C1293   1.403       .  A
C1292      H1297   1.084       .  S
C1293      C1294   1.416       .  A
C1293     Br1301   1.920       .  S
C1294      C1295   1.408   1_565  A
C1295      C1296   1.399       .  A
C1295      H1298   1.083       .  S
C1296     Br1302   1.920       .  S
C1303      C1304   1.416       .  A
C1303      C1308   1.407       .  A
C1304      C1305   1.393       .  A
C1304     Br1320   1.921       .  S
C1305      C1306   1.396       .  A
C1305      H1309   1.084       .  S
C1306      C1310   1.477       .  S
C1306      C1307   1.408       .  A
C1307      C1308   1.406       .  A
C1307     Br1319   1.916       .  S
C1308      H1311   1.083       .  S
C1310      C1312   1.405       .  A
C1310      C1316   1.402       .  A
C1312      C1313   1.404       .  A
C1312      H1317   1.084       .  S
C1313      C1314   1.413       .  A
C1313     Br1321   1.919       .  S
C1314      C1315   1.410       .  A
C1315      C1316   1.395       .  A
C1315      H1318   1.084       .  S
C1316     Br1322   1.919       .  S
C1323      C1324   1.423       .  A
C1323      C1328   1.416       .  A
C1324      C1325   1.416       .  A
C1324     Br1340   1.920       .  S
C1325      C1326   1.408       .  A
C1325      H1329   1.083       .  S
C1326      C1330   1.500       .  S
C1326      C1327   1.404       .  A
C1327      C1328   1.402       .  A
C1327     Br1339   1.918       .  S
C1328      H1331   1.082       .  S
C1330      C1332   1.398       .  A
C1330      C1336   1.413       .  A
C1332      C1333   1.401       .  A
C1332      H1337   1.084       .  S
C1333      C1334   1.424       .  A
C1333     Br1341   1.923       .  S
C1334      C1335   1.411       .  A
C1335      C1336   1.417       .  A
C1335      H1338   1.083       .  S
C1336     Br1342   1.915       .  S
C1343      C1344   1.409       .  A
C1343      C1348   1.400       .  A
C1344      C1345   1.405       .  A
C1344     Br1360   1.917       .  S
C1345      C1346   1.406       .  A
C1345      H1349   1.083       .  S
C1346      C1350   1.485       .  S
C1346      C1347   1.412       .  A
C1347      C1348   1.397       .  A
C1347     Br1359   1.921       .  S
C1348      H1351   1.084       .  S
C1350      C1352   1.403       .  A
C1350      C1356   1.409       .  A
C1352      C1353   1.398       .  A
C1352      H1357   1.084       .  S
C1353      C1354   1.411       .  A
C1353     Br1361   1.919       .  S
C1354      C1355   1.407       .  A
C1355      C1356   1.403       .  A
C1355      H1358   1.084       .  S
C1356     Br1362   1.918       .  S
C1363      C1364   1.411       .  A
C1363      C1368   1.401       .  A
C1364      C1365   1.410       .  A
C1364     Br1380   1.917       .  S
C1365      C1366   1.407       .  A
C1365      H1369   1.083       .  S
C1366      C1370   1.498       .  S
C1366      C1367   1.413       .  A
C1367      C1368   1.404       .  A
C1367     Br1379   1.916       .  S
C1368      H1371   1.083       .  S
C1370      C1372   1.407       .  A
C1370      C1376   1.411       .  A
C1372      C1373   1.407       .  A
C1372      H1377   1.083       .  S
C1373      C1374   1.411       .  A
C1373     Br1381   1.919       .  S
C1374      C1375   1.407       .  A
C1375      C1376   1.407       .  A
C1375      H1378   1.083       .  S
C1376     Br1382   1.918       .  S
C1383      C1384   1.411       .  A
C1383      C1388   1.404       .  A
C1384      C1385   1.403       .  A
C1384     Br1400   1.916       .  S
C1385      C1386   1.402       .  A
C1385      H1389   1.083       .  S
C1386      C1390   1.490       .  S
C1386      C1387   1.410       .  A
C1387      C1388   1.405       .  A
C1387     Br1399   1.916       .  S
C1388      H1391   1.081       .  S
C1390      C1392   1.402       .  A
C1390      C1396   1.412       .  A
C1392      C1393   1.404       .  A
C1392      H1397   1.083       .  S
C1393      C1394   1.414       .  A
C1393     Br1401   1.918       .  S
C1394      C1395   1.405       .  A
C1395      C1396   1.406       .  A
C1395      H1398   1.083       .  S
C1396     Br1402   1.918       .  S
C1403      C1404   1.417       .  A
C1403      C1408   1.407       .  A
C1404      C1405   1.408       .  A
C1404     Br1420   1.920       .  S
C1405      C1406   1.404       .  A
C1405      H1409   1.083       .  S
C1406      C1410   1.490       .  S
C1406      C1407   1.408       .  A
C1407      C1408   1.402       .  A
C1407     Br1419   1.919       .  S
C1408      H1411   1.084       .  S
C1410      C1412   1.401       .  A
C1410      C1416   1.412       .  A
C1412      C1413   1.402       .  A
C1412      H1417   1.083       .  S
C1413      C1414   1.415       .  A
C1413     Br1421   1.920       .  S
C1414      C1415   1.405       .  A
C1415      C1416   1.406       .  A
C1415      H1418   1.083       .  S
C1416     Br1422   1.917       .  S
C1423      C1424   1.409       .  A
C1423      C1428   1.406       .  A
C1424      C1425   1.407       .  A
C1424     Br1440   1.917       .  S
C1425      C1426   1.407       .  A
C1425      H1429   1.083       .  S
C1426      C1430   1.477       .  S
C1426      C1427   1.403       .  A
C1427      C1428   1.391       .  A
C1427     Br1439   1.921       .  S
C1428      H1431   1.084       .  S
C1430      C1432   1.404       .  A
C1430      C1436   1.407       .  A
C1432      C1433   1.403       .  A
C1432      H1437   1.083       .  S
C1433      C1434   1.408       .  A
C1433     Br1441   1.917       .  S
C1434      C1435   1.402       .  A
C1435      C1436   1.397       .  A
C1435      H1438   1.084       .  S
C1436     Br1442   1.919       .  S
C1443      C1444   1.414       .  A
C1443      C1448   1.410       .  A
C1444      C1445   1.409       .  A
C1444     Br1460   1.917       .  S
C1445      C1446   1.406       .  A
C1445      H1449   1.083       .  S
C1446      C1450   1.481       .  S
C1446      C1447   1.403       .  A
C1447      C1448   1.392       .  A
C1447     Br1459   1.921       .  S
C1448      H1451   1.084       .  S
C1450      C1452   1.403       .  A
C1450      C1456   1.401       .  A
C1452      C1453   1.407       .  A
C1452      H1457   1.084       .  S
C1453      C1454   1.419       .  A
C1453     Br1461   1.916       .  S
C1454      C1455   1.416       .  A
C1455      C1456   1.395       .  A
C1455      H1458   1.082       .  S
C1456     Br1462   1.919       .  S
C1463      C1464   1.420       .  A
C1463      C1468   1.416       .  A
C1464      C1465   1.411       .  A
C1464     Br1480   1.919       .  S
C1465      C1466   1.406       .  A
C1465      H1469   1.084       .  S
C1466      C1470   1.491       .  S
C1466      C1467   1.403       .  A
C1467      C1468   1.400       .  A
C1467     Br1479   1.919       .  S
C1468      H1471   1.083       .  S
C1470      C1472   1.393       .  A
C1470      C1476   1.411       .  A
C1472      C1473   1.395       .  A
C1472      H1477   1.084       .  S
C1473      C1474   1.423       .  A
C1473     Br1481   1.917       .  S
C1474      C1475   1.415       .  A
C1475      C1476   1.415       .  A
C1475      H1478   1.083       .  S
C1476     Br1482   1.917       .  S
C1483      C1484   1.420       .  A
C1483      C1488   1.412       .  A
C1484      C1485   1.408       .  A
C1484     Br1500   1.920       .  S
C1485      C1486   1.404       .  A
C1485      H1489   1.083       .  S
C1486      C1490   1.486       .  S
C1486      C1487   1.405       .  A
C1487      C1488   1.395       .  A
C1487     Br1499   1.922       .  S
C1488      H1491   1.082       .  S
C1490      C1492   1.399       .  A
C1490      C1496   1.410       .  A
C1492      C1493   1.393       .  A
C1492      H1497   1.084       .  S
C1493      C1494   1.411       .  A
C1493     Br1501   1.918       .  S
C1494      C1495   1.414       .  A
C1495      C1496   1.411       .  A
C1495      H1498   1.083       .  S
C1496     Br1502   1.921       .  S
C1503      C1504   1.408       .  A
C1503      C1508   1.396       .  A
C1504      C1505   1.392       .  A
C1504     Br1520   1.923       .  S
C1505      C1506   1.399       .  A
C1505      H1509   1.083       .  S
C1506      C1510   1.461       .  S
C1506      C1507   1.406       .  A
C1507      C1508   1.388       .  A
C1507     Br1519   1.918       .  S
C1508      H1511   1.080       .  S
C1510      C1512   1.403       .  A
C1510      C1516   1.401       .  A
C1512      C1513   1.394       .  A
C1512      H1517   1.084       .  S
C1513      C1514   1.406       .  A
C1513     Br1521   1.918       .  S
C1514      C1515   1.405       .  A
C1515      C1516   1.393       .  A
C1515      H1518   1.084       .  S
C1516     Br1522   1.919       .  S
C1523      C1524   1.414       .  A
C1523      C1528   1.413       .  A
C1524      C1525   1.413       .  A
C1524     Br1540   1.916       .  S
C1525      C1526   1.409       .  A
C1525      H1529   1.083       .  S
C1526      C1530   1.494       .  S
C1526      C1527   1.404       .  A
C1527      C1528   1.399       .  A
C1527     Br1539   1.920       .  S
C1528      H1531   1.082       .  S
C1530      C1532   1.406       .  A
C1530      C1536   1.409       .  A
C1532      C1533   1.410       .  A
C1532      H1537   1.083       .  S
C1533      C1534   1.412       .  A
C1533     Br1541   1.915       .  S
C1534      C1535   1.407       .  A
C1535      C1536   1.403       .  A
C1535      H1538   1.084       .  S
C1536     Br1542   1.919       .  S
C1543      C1544   1.422       .  A
C1543      C1548   1.407       .  A
C1544      C1545   1.395       .  A
C1544     Br1560   1.926       .  S
C1545      C1546   1.397       .  A
C1545      H1549   1.084       .  S
C1546      C1550   1.481       .  S
C1546      C1547   1.408       .  A
C1547      C1548   1.407       .  A
C1547     Br1559   1.915       .  S
C1548      H1551   1.083       .  S
C1550      C1552   1.404       .  A
C1550      C1556   1.400       .  A
C1552      C1553   1.409       .  A
C1552      H1557   1.083       .  S
C1553      C1554   1.419       .  A
C1553     Br1561   1.915       .  S
C1554      C1555   1.413       .  A
C1555      C1556   1.393       .  A
C1555      H1558   1.080       .  S
C1556     Br1562   1.918       .  S
C1563      C1564   1.417       .  A
C1563      C1568   1.406       .  A
C1564      C1565   1.413       .  A
C1564     Br1580   1.918       .  S
C1565      C1566   1.407       .  A
C1565      H1569   1.083       .  S
C1566      C1570   1.492       .  S
C1566      C1567   1.406       .  A
C1567      C1568   1.398       .  A
C1567     Br1579   1.919       .  S
C1568      H1571   1.082       .  S
C1570      C1572   1.400       .  A
C1570      C1576   1.413       .  A
C1572      C1573   1.403       .  A
C1572      H1577   1.083       .  S
C1573      C1574   1.417       .  A
C1573     Br1581   1.920       .  S
C1574      C1575   1.407       .  A
C1575      C1576   1.409       .  A
C1575      H1578   1.083       .  S
C1576     Br1582   1.919       .  S
C1583      C1584   1.418       .  A
C1583      C1588   1.414       .  A
C1584      C1585   1.406       .  A
C1584     Br1600   1.920       .  S
C1585      C1586   1.404       .  A
C1585      H1589   1.083       .  S
C1586      C1590   1.478       .  S
C1586      C1587   1.400       .  A
C1587      C1588   1.393       .  A
C1587     Br1599   1.920       .  S
C1588      H1591   1.082       .  S
C1590      C1592   1.405       .  A
C1590      C1596   1.402       .  A
C1592      C1593   1.409       .  A
C1592      H1597   1.083       .  S
C1593      C1594   1.414       .  A
C1593     Br1601   1.916       .  S
C1594      C1595   1.412       .  A
C1595      C1596   1.391       .  A
C1595      H1598   1.084       .  S
C1596     Br1602   1.922       .  S
C1603      C1604   1.407       .  A
C1603      C1608   1.405       .  A
C1604      C1605   1.409       .  A
C1604     Br1620   1.916       .  S
C1605      C1606   1.411       .  A
C1605      H1609   1.083       .  S
C1606      C1610   1.495       .  S
C1606      C1607   1.409       .  A
C1607      C1608   1.400       .  A
C1607     Br1619   1.919       .  S
C1608      H1611   1.084       .  S
C1610      C1612   1.406       .  A
C1610      C1616   1.411       .  A
C1612      C1613   1.408       .  A
C1612      H1617   1.083       .  S
C1613      C1614   1.411       .  A
C1613     Br1621   1.915       .  S
C1614      C1615   1.404       .  A
C1615      C1616   1.404       .  A
C1615      H1618   1.084       .  S
C1616     Br1622   1.918       .  S
C1623      C1624   1.420       .  A
C1623      C1628   1.409       .  A
C1624      C1625   1.411       .  A
C1624     Br1640   1.919       .  S
C1625      C1626   1.407       .  A
C1625      H1629   1.083       .  S
C1626      C1630   1.495       .  S
C1626      C1627   1.409       .  A
C1627      C1628   1.395       .  A
C1627     Br1639   1.922       .  S
C1628      H1631   1.082       .  S
C1630      C1632   1.403       .  A
C1630      C1636   1.415       .  A
C1632      C1633   1.395       .  A
C1632      H1637   1.084       .  S
C1633      C1634   1.413       .  A
C1633     Br1641   1.923       .  S
C1634      C1635   1.406       .  A
C1635      C1636   1.408       .  A
C1635      H1638   1.083       .  S
C1636     Br1642   1.918       .  S
C1643      C1644   1.415       .  A
C1643      C1648   1.412       .  A
C1644      C1645   1.409       .  A
C1644     Br1660   1.917       .  S
C1645      C1646   1.406       .  A
C1645      H1649   1.083       .  S
C1646      C1650   1.485       .  S
C1646      C1647   1.404       .  A
C1647      C1648   1.393       .  A
C1647     Br1659   1.921       .  S
C1648      H1651   1.083       .  S
C1650      C1652   1.398       .  A
C1650      C1656   1.407       .  A
C1652      C1653   1.399       .  A
C1652      H1657   1.084       .  S
C1653      C1654   1.421       .  A
C1653     Br1661   1.920       .  S
C1654      C1655   1.410       .  A
C1655      C1656   1.407       .  A
C1655      H1658   1.083       .  S
C1656     Br1662   1.918       .  S
C1663      C1664   1.425       .  A
C1663      C1668   1.407       .  A
C1664      C1665   1.393       .  A
C1664     Br1680   1.919       .  S
C1665      C1666   1.393       .  A
C1665      H1669   1.084       .  S
C1666      C1670   1.486       .  S
C1666      C1667   1.411       .  A
C1667      C1668   1.410       .  A
C1667     Br1679   1.914       .  S
C1668      H1671   1.083       .  S
C1670      C1672   1.401       .  A
C1670      C1676   1.408       .  A
C1672      C1673   1.402       .  A
C1672      H1677   1.084       .  S
C1673      C1674   1.418       .  A
C1673     Br1681   1.922       .  S
C1674      C1675   1.409       .  A
C1675      C1676   1.406       .  A
C1675      H1678   1.083       .  S
C1676     Br1682   1.918       .  S
C1683      C1684   1.416       .  A
C1683      C1688   1.412       .  A
C1684      C1685   1.409       .  A
C1684     Br1700   1.919       .  S
C1685      C1686   1.407       .  A
C1685      H1689   1.083       .  S
C1686      C1690   1.483       .  S
C1686      C1687   1.402       .  A
C1687      C1688   1.391       .  A
C1687     Br1699   1.920       .  S
C1688      H1691   1.082       .  S
C1690      C1692   1.406       .  A
C1690      C1696   1.399       .  A
C1692      C1693   1.408       .  A
C1692      H1697   1.084       .  S
C1693      C1694   1.420       .  A
C1693     Br1701   1.915       .  S
C1694      C1695   1.419       .  A
C1695      C1696   1.396       .  A
C1695      H1698   1.082       .  S
C1696     Br1702   1.921       .  S
C1703      C1704   1.408       .  A
C1703      C1708   1.409       .  A
C1704      C1705   1.410       .  A
C1704     Br1720   1.915       .  S
C1705      C1706   1.408       .  A
C1705      H1709   1.083       .  S
C1706      C1710   1.487       .  S
C1706      C1707   1.404       .  A
C1707      C1708   1.398       .  A
C1707     Br1719   1.918       .  S
C1708      H1711   1.084       .  S
C1710      C1712   1.404       .  A
C1710      C1716   1.409       .  A
C1712      C1713   1.402       .  A
C1712      H1717   1.083       .  S
C1713      C1714   1.408       .  A
C1713     Br1721   1.918       .  S
C1714      C1715   1.404       .  A
C1715      C1716   1.406       .  A
C1715      H1718   1.083       .  S
C1716     Br1722   1.916       .  S
C1723      C1724   1.416       .  A
C1723      C1728   1.409       .  A
C1724      C1725   1.397       .  A
C1724     Br1740   1.916       .  S
C1725      C1726   1.398       .  A
C1725      H1729   1.084       .  S
C1726      C1730   1.486       .  S
C1726      C1727   1.410       .  A
C1727      C1728   1.409       .  A
C1727     Br1739   1.917       .  S
C1728      H1731   1.083       .  S
C1730      C1732   1.404       .  A
C1730      C1736   1.405       .  A
C1732      C1733   1.403       .  A
C1732      H1737   1.082       .  S
C1733      C1734   1.413       .  A
C1733     Br1741   1.919       .  S
C1734      C1735   1.412       .  A
C1735      C1736   1.401       .  A
C1735      H1738   1.083       .  S
C1736     Br1742   1.918       .  S
C1743      C1744   1.424       .  A
C1743      C1748   1.409       .  A
C1744      C1745   1.396       .  A
C1744     Br1760   1.925       .  S
C1745      C1746   1.395       .  A
C1745      H1749   1.084       .  S
C1746      C1750   1.479       .  S
C1746      C1747   1.407       .  A
C1747      C1748   1.405       .  A
C1747     Br1759   1.918       .  S
C1748      H1751   1.083       .  S
C1750      C1752   1.398       .  A
C1750      C1756   1.407       .  A
C1752      C1753   1.396       .  A
C1752      H1757   1.084       .  S
C1753      C1754   1.418       .  A
C1753     Br1761   1.923       .  S
C1754      C1755   1.409       .  A
C1755      C1756   1.405       .  A
C1755      H1758   1.083       .  S
C1756     Br1762   1.917       .  S
C1763      C1764   1.415       .  A
C1763      C1768   1.412       .  A
C1764      C1765   1.401       .  A
C1764     Br1780   1.917       .  S
C1765      C1766   1.402       .  A
C1765      H1769   1.084       .  S
C1766      C1770   1.470       .  S
C1766      C1767   1.400       .  A
C1767      C1768   1.394       .  A
C1767     Br1779   1.921       .  S
C1768      H1771   1.082       .  S
C1770      C1772   1.410       .  A
C1770      C1776   1.396       .  A
C1772      C1773   1.410       .  A
C1772      H1777   1.083       .  S
C1773      C1774   1.409       .  A
C1773     Br1781   1.915       .  S
C1774      C1775   1.415       .  A
C1775      C1776   1.378       .  A
C1775      H1778   1.083       .  S
C1776     Br1782   1.923       .  S
