geometry optimzed in LAMMPS
_audit_creation_date              2020-11-30 
_audit_creation_method            'lammps2cif' 
_symmetry_space_group_name_H-M    'P1' 
_symmetry_Int_Tables_number       1 
_symmetry_cell_setting            triclinic 
loop_ 
_symmetry_equiv_pos_as_xyz 
  x,y,z 
_cell_length_a                    69.71191079 
_cell_length_b                    70.23192433715786 
_cell_length_c                    69.70132512104009 
_cell_angle_alpha                 90.17936796904971 
_cell_angle_beta                  90.33876887245542 
_cell_angle_gamma                 90.13046624795939 
loop_ 
_atom_site_label 
_atom_site_type_symbol 
_atom_site_fract_x 
_atom_site_fract_y 
_atom_site_fract_z 
_atom_site_charge 
C1          C  0.35913242  0.64884092  0.14730635     0.87000
C2          C  0.36881886  0.63700400  0.16314783    -0.53300
C3          C  0.38114006  0.62361359  0.15630020     0.09900
C4          C  0.38252395  0.62317615  0.13431017     0.20900
C5          C  0.37573639  0.65697522  0.13536790    -0.54000
C6          C  0.38796646  0.64346984  0.12838690     0.10000
C7          C  0.34938514  0.63413825  0.13398638    -0.53500
C8          C  0.36177837  0.62060403  0.12715981     0.10600
H9          H  0.36612669  0.63898996  0.17835498     0.15100
H10         H  0.39245806  0.61214203  0.12873319     0.00800
H11         H  0.37708007  0.67203804  0.13232155     0.15400
H12         H  0.33426497  0.63468314  0.13029621     0.15200
C13         C  0.66052128  0.34681546  0.14024512     0.87000
C14         C  0.64902607  0.35914665  0.15442392    -0.53300
C15         C  0.63511690  0.36989249  0.14595122     0.09900
C16         C  0.63377594  0.36704320  0.12411202     0.20900
C17         C  0.64535626  0.33480013  0.12942566    -0.54000
C18         C  0.63127339  0.34552531  0.12100189     0.10000
C19         C  0.66804354  0.36101669  0.12520694    -0.53500
C20         C  0.65392127  0.37172113  0.11680151     0.10600
H21         H  0.65195469  0.35965176  0.16974228     0.15100
H22         H  0.62228699  0.37543800  0.11704014     0.00800
H23         H  0.64563759  0.31935988  0.12884408     0.15400
H24         H  0.68312892  0.36240391  0.12175840     0.15200
C25         C  0.64940355  0.66212692  0.14447069     0.87000
C26         C  0.66180404  0.64777111  0.13317177    -0.53300
C27         C  0.65119665  0.63437900  0.12349733     0.09900
C28         C  0.62953107  0.63662361  0.12599166     0.20900
C29         C  0.63561708  0.67056262  0.12939305    -0.54000
C30         C  0.62511795  0.65706963  0.11972827     0.10000
C31         C  0.63640289  0.64995079  0.15742513    -0.53500
C32         C  0.62622286  0.63642454  0.14767903     0.10600
H33         H  0.67736097  0.64824029  0.13296478     0.15100
H34         H  0.62091844  0.62579750  0.11806208     0.00800
H35         H  0.63423801  0.68573712  0.12694414     0.15400
H36         H  0.63536767  0.65186812  0.17285262     0.15200
C37         C  0.35885071  0.34328489  0.14847242     0.87000
C38         C  0.35092736  0.35642043  0.13256830    -0.53300
C39         C  0.36450420  0.36808064  0.12470160     0.09900
C40         C  0.38456893  0.36531822  0.13328224     0.20900
C41         C  0.37546774  0.33235507  0.13883022    -0.54000
C42         C  0.38891281  0.34409870  0.13074957     0.10000
C43         C  0.36843711  0.35703400  0.16289785    -0.53500
C44         C  0.38207622  0.36838618  0.15491577     0.10600
H45         H  0.33601435  0.35637121  0.12802533     0.15100
H46         H  0.39543665  0.37485361  0.12672908     0.00800
H47         H  0.37629056  0.31693447  0.13832179     0.15400
H48         H  0.36463979  0.35784586  0.17796859     0.15200
O49         O  0.48623707  0.48107043  0.17009221    -0.71300
O50         O  0.52262076  0.52128801  0.16630814    -0.71500
O51         O  0.52359543  0.48350393  0.16085304    -0.71400
O52         O  0.48526475  0.51864131  0.17527549    -0.71400
O53         O  0.49406689  0.51632788  0.20514501    -0.71300
O54         O  0.53054028  0.47844348  0.19084409    -0.71400
O55         O  0.53150131  0.51620438  0.19579248    -0.71300
O56         O  0.49324834  0.47800913  0.20035985    -0.71500
V57         V  0.50458582  0.50104560  0.16872154     1.35200
V58         V  0.51211322  0.49732952  0.19750196     1.35200
C59         C  0.48349623  0.47280081  0.18593867     0.77900
C60         C  0.53359202  0.52522247  0.18031295     0.78000
C61         C  0.53356369  0.47495028  0.17329007     0.77900
C62         C  0.48332379  0.52374784  0.19252453     0.77800
C63         C  0.35295301  0.34952093  0.84088427     0.87000
C64         C  0.33946424  0.36037913  0.85446409    -0.53300
C65         C  0.34884368  0.37122096  0.86783125     0.09900
C66         C  0.37084136  0.37055837  0.86604000     0.20900
C67         C  0.36570660  0.36502082  0.83194988    -0.54000
C68         C  0.37513022  0.37605841  0.84520804     0.10000
C69         C  0.36659956  0.33828452  0.85422197    -0.53500
C70         C  0.37613197  0.34931295  0.86742168     0.10600
H71         H  0.32392804  0.35940796  0.85368203     0.15100
H72         H  0.37821639  0.38002460  0.87642558     0.00800
H73         H  0.36703891  0.36693066  0.81658281     0.15400
H74         H  0.36862622  0.32298886  0.85317742     0.15200
C75         C  0.65910540  0.35818882  0.84894753     0.87000
C76         C  0.64775759  0.34704568  0.86429644    -0.53300
C77         C  0.63687299  0.35848534  0.87589419     0.09900
C78         C  0.63851257  0.37970469  0.87118265     0.20900
C79         C  0.64381345  0.36987452  0.83802627    -0.54000
C80         C  0.63299296  0.38120429  0.84987653     0.10000
C81         C  0.67070106  0.37321682  0.86031046    -0.53500
C82         C  0.65994912  0.38434459  0.87200396     0.10600
H83         H  0.64848726  0.33169539  0.86586823     0.15100
H84         H  0.62975219  0.38896948  0.88064364     0.00800
H85         H  0.64185783  0.36915044  0.82259252     0.15400
H86         H  0.68614131  0.37498784  0.85918218     0.15200
C87         C  0.65305176  0.64838278  0.84678623     0.87000
C88         C  0.63675981  0.65882224  0.85737270    -0.53300
C89         C  0.62643353  0.64733995  0.86927483     0.09900
C90         C  0.63332245  0.62665154  0.86937174     0.20900
C91         C  0.66517091  0.63915126  0.86284563    -0.54000
C92         C  0.65464666  0.62769801  0.87468114     0.10000
C93         C  0.64302754  0.63168492  0.83635323    -0.53500
C94         C  0.63266419  0.62028928  0.84833832     0.10600
H95         H  0.63364944  0.67381154  0.85534808     0.15100
H96         H  0.62483057  0.61732394  0.87900819     0.00800
H97         H  0.68039740  0.64180940  0.86481629     0.15400
H98         H  0.64404242  0.62924491  0.82100749     0.15200
C99         C  0.34664136  0.64120490  0.84321831     0.87000
C100        C  0.36107290  0.65290038  0.85542071    -0.53300
C101        C  0.37382814  0.64181780  0.86537802     0.09900
C102        C  0.37087863  0.62043587  0.86224704     0.20900
C103        C  0.35914312  0.62823693  0.83034000    -0.54000
C104        C  0.37180144  0.61724990  0.84056187     0.10000
C105        C  0.33720560  0.62739204  0.85765395    -0.53500
C106        C  0.35005492  0.61651497  0.86759667     0.10600
H107        H  0.36111296  0.66833946  0.85598512     0.15100
H108        H  0.38124478  0.61152848  0.87040771     0.00800
H109        H  0.35748790  0.62730918  0.81487433     0.15400
H110        H  0.32180937  0.62623087  0.85951338     0.15200
O111        O  0.29725507  0.47498100  0.98100346    -0.71300
O112        O  0.29727309  0.51358881  0.01968290    -0.71500
O113        O  0.29512892  0.51332157  0.98109684    -0.71400
O114        O  0.29929323  0.47531577  0.01970213    -0.71400
O115        O  0.33034792  0.47774788  0.01889302    -0.71300
O116        O  0.32618726  0.51411751  0.97884652    -0.71400
O117        O  0.32824061  0.51588547  0.01730288    -0.71300
O118        O  0.32838538  0.47606237  0.98054533    -0.71500
V119        V  0.29781660  0.49432721  0.00034102     1.35200
V120        V  0.32766703  0.49594213  0.99892474     1.35200
C121        C  0.31292556  0.46876657  0.97440683     0.77900
C122        C  0.31281230  0.52140093  0.02495233     0.78000
C123        C  0.30996395  0.51999970  0.97322132     0.77900
C124        C  0.31552189  0.47016493  0.02597450     0.77800
O125        O  0.51616977  0.71406369  0.97006532    -0.71300
O126        O  0.48030816  0.71102501  0.01117077    -0.71500
O127        O  0.51867646  0.71367306  0.00862946    -0.71400
O128        O  0.47752789  0.71159358  0.97252650    -0.71400
O129        O  0.47987354  0.68077049  0.97160914    -0.71300
O130        O  0.52018322  0.68277839  0.00838225    -0.71400
O131        O  0.48206581  0.68016765  0.01008477    -0.71300
O132        O  0.51815289  0.68320991  0.96993149    -0.71500
V133        V  0.49818372  0.71201926  0.99055418     1.35200
V134        V  0.50002761  0.68236462  0.98998262     1.35200
C135        C  0.52336289  0.69903468  0.96311158     0.77900
C136        C  0.47530381  0.69499966  0.01775654     0.78000
C137        C  0.52618114  0.69854600  0.01489965     0.77900
C138        C  0.47177515  0.69581899  0.96582924     0.77800
O139        O  0.68972877  0.52914396  0.98313699    -0.71300
O140        O  0.68604320  0.48976593  0.02009707    -0.71500
O141        O  0.68909165  0.52788034  0.02136943    -0.71400
O142        O  0.68656292  0.49120933  0.98162331    -0.71400
O143        O  0.71739509  0.48707982  0.98362368    -0.71300
O144        O  0.72021665  0.52706466  0.02084339    -0.71400
O145        O  0.71713220  0.48872987  0.02211430    -0.71300
O146        O  0.72063076  0.52541511  0.98214614    -0.71500
V147        V  0.68847632  0.50943762  0.00159416     1.35200
V148        V  0.71829614  0.50712660  0.00217109     1.35200
C149        C  0.70575081  0.53382801  0.97614144     0.77900
C150        C  0.70097754  0.48263294  0.02753323     0.78000
C151        C  0.70497426  0.53421823  0.02749170     0.77900
C152        C  0.70143592  0.48260638  0.97610182     0.77800
O153        O  0.48491975  0.29332591  0.97421918    -0.71300
O154        O  0.52516029  0.28571689  0.01083666    -0.71500
O155        O  0.48651828  0.28794904  0.01251412    -0.71400
O156        O  0.52343743  0.29094425  0.97254768    -0.71400
O157        O  0.52620502  0.32137514  0.97750174    -0.71300
O158        O  0.48818569  0.31860713  0.01640688    -0.71400
O159        O  0.52639722  0.31625618  0.01572117    -0.71300
O160        O  0.48766116  0.32390866  0.97805313    -0.71500
V161        V  0.50503242  0.29006355  0.99261433     1.35200
V162        V  0.50705262  0.31943281  0.99679277     1.35200
C163        C  0.47960540  0.30996016  0.96974098     0.77900
C164        C  0.53240350  0.29976547  0.01973292     0.78000
C165        C  0.48116858  0.30274032  0.02136634     0.77900
C166        C  0.53131111  0.30661839  0.96839330     0.77800
O167        O  0.48207712  0.51874693  0.80814792    -0.71300
O168        O  0.52239076  0.48243584  0.81124505    -0.71500
O169        O  0.52068883  0.52048251  0.80967111    -0.71400
O170        O  0.48395652  0.48078665  0.80992414    -0.71400
O171        O  0.48411888  0.47986028  0.77878331    -0.71300
O172        O  0.52262334  0.51869694  0.77863879    -0.71400
O173        O  0.52286583  0.48045246  0.78014782    -0.71300
O174        O  0.48387992  0.51825080  0.77704975    -0.71500
V175        V  0.50230765  0.50061844  0.80911480     1.35200
V176        V  0.50333097  0.49934212  0.77922812     1.35200
C177        C  0.47607533  0.52466045  0.79206252     0.77900
C178        C  0.52941806  0.47516144  0.79621361     0.78000
C179        C  0.52829910  0.52608179  0.79426451     0.77900
C180        C  0.47756456  0.47367355  0.79449277     0.77800
C181        C  0.65649435  0.14948480  0.65110276     0.87000
C182        C  0.67140003  0.13685333  0.64102732    -0.53300
C183        C  0.66386003  0.12570069  0.62681861     0.09900
C184        C  0.64207396  0.12790770  0.62428169     0.20900
C185        C  0.64636374  0.16066350  0.63495683    -0.54000
C186        C  0.63869594  0.14921201  0.62090475     0.10000
C187        C  0.64121797  0.13544402  0.65831862    -0.53500
C188        C  0.63366162  0.12405988  0.64420723     0.10600
H189        H  0.68651171  0.13664492  0.64490750     0.15100
H190        H  0.63584355  0.11859090  0.61292675     0.00800
H191        H  0.64528255  0.17607103  0.63488987     0.15400
H192        H  0.63675970  0.13490891  0.67318204     0.15200
C193        C  0.64811982  0.14734662  0.34663508     0.87000
C194        C  0.63585457  0.16074975  0.35913939    -0.53300
C195        C  0.62473249  0.15140968  0.37219662     0.09900
C196        C  0.62726338  0.12966630  0.37169260     0.20900
C197        C  0.65992467  0.13546954  0.36100072    -0.54000
C198        C  0.64883776  0.12620545  0.37418037     0.10000
C199        C  0.63365388  0.13309647  0.33778461    -0.53500
C200        C  0.62276205  0.12376274  0.35102263     0.10600
H201        H  0.63576466  0.17612807  0.35757628     0.15100
H202        H  0.61862894  0.12186353  0.38245235     0.00800
H203        H  0.67545161  0.13459466  0.36065390     0.15400
H204        H  0.63235349  0.13071066  0.32245568     0.15200
C205        C  0.35121332  0.14854250  0.65181343     0.87000
C206        C  0.36123170  0.13219371  0.66262651    -0.53300
C207        C  0.37318608  0.12166876  0.65153505     0.09900
C208        C  0.37374565  0.12804399  0.63057121     0.20900
C209        C  0.36766585  0.16004799  0.64255874    -0.54000
C210        C  0.37944793  0.14910033  0.63134682     0.10000
C211        C  0.34084580  0.13871607  0.63491188    -0.53500
C212        C  0.35274975  0.12791395  0.62373162     0.10600
H213        H  0.35934609  0.12939105  0.67782029     0.15100
H214        H  0.38334163  0.11917690  0.62154115     0.00800
H215        H  0.36988631  0.17516956  0.64495722     0.15400
H216        H  0.32561003  0.14035924  0.63217476     0.15200
C217        C  0.35793184  0.15155522  0.34523803     0.87000
C218        C  0.36884609  0.16346947  0.36035454    -0.53300
C219        C  0.37858713  0.15284764  0.37355260     0.09900
C220        C  0.37665333  0.13127238  0.37015669     0.20900
C221        C  0.37329676  0.13855743  0.33626817    -0.54000
C222        C  0.38304937  0.12789075  0.34946447     0.10000
C223        C  0.34507012  0.13790432  0.35680580    -0.53500
C224        C  0.35503746  0.12726496  0.36990198     0.10600
H225        H  0.36892142  0.17893598  0.36050958     0.15100
H226        H  0.38471025  0.12226553  0.38044407     0.00800
H227        H  0.37614281  0.13791926  0.32098627     0.15400
H228        H  0.32974835  0.13647455  0.35435873     0.15200
O229        O  0.48171366  0.17552461  0.49061347    -0.71300
O230        O  0.52477007  0.17989887  0.52383700    -0.71500
O231        O  0.48652577  0.18003848  0.52864369    -0.71400
O232        O  0.51983074  0.17547076  0.48598771    -0.71400
O233        O  0.52117084  0.20627605  0.48366827    -0.71300
O234        O  0.48455067  0.21052208  0.52388479    -0.71400
O235        O  0.52323331  0.21073567  0.52209056    -0.71300
O236        O  0.48255281  0.20600738  0.48551394    -0.71500
V237        V  0.50318800  0.17834255  0.50723320     1.35200
V238        V  0.50288150  0.20783444  0.50386778     1.35200
C239        C  0.47510831  0.18991832  0.48197581     0.77900
C240        C  0.53125884  0.19601828  0.52877550     0.78000
C241        C  0.47950997  0.19599099  0.53328684     0.77900
C242        C  0.52644197  0.19007848  0.47773971     0.77800
C243        C  0.64984791  0.84540941  0.35266829     0.87000
C244        C  0.63643983  0.83711596  0.36812979    -0.53300
C245        C  0.62743050  0.85065044  0.37893203     0.09900
C246        C  0.63275854  0.87100985  0.37332115     0.20900
C247        C  0.63698399  0.85888172  0.34084483    -0.54000
C248        C  0.62801632  0.87236064  0.35184264     0.10000
C249        C  0.66373987  0.85857286  0.36380065    -0.53500
C250        C  0.65475842  0.87188885  0.37483499     0.10600
H251        H  0.63453521  0.82194856  0.37032848     0.15100
H252        H  0.62520273  0.88197198  0.38190626     0.00800
H253        H  0.63499320  0.85754246  0.32545376     0.15400
H254        H  0.67924183  0.85715267  0.36335250     0.15200
C255        C  0.34365717  0.85304194  0.35131802     0.87000
C256        C  0.35588739  0.83991503  0.36415937    -0.53300
C257        C  0.36900433  0.84939960  0.37524755     0.09900
C258        C  0.36822110  0.87113852  0.37281745     0.20900
C259        C  0.33438655  0.86727273  0.36532870    -0.54000
C260        C  0.34735957  0.87681773  0.37658124     0.10000
C261        C  0.35824016  0.86504327  0.33988814    -0.53500
C262        C  0.37113989  0.87455275  0.35134386     0.10600
H263        H  0.35449521  0.82450944  0.36420885     0.15100
H264        H  0.37845534  0.87911314  0.38209602     0.00800
H265        H  0.31901141  0.86939992  0.36621692     0.15400
H266        H  0.35803111  0.86605574  0.32436273     0.15200
C267        C  0.34291442  0.85927601  0.64416515     0.87000
C268        C  0.35907252  0.87020207  0.65489462    -0.53300
C269        C  0.37088046  0.88017833  0.64284523     0.09900
C270        C  0.36549008  0.87821973  0.62164672     0.20900
C271        C  0.33264780  0.87474775  0.63214054    -0.54000
C272        C  0.34463477  0.88470012  0.62036963     0.10000
C273        C  0.35335714  0.84671592  0.62925413    -0.53500
C274        C  0.36528250  0.85682425  0.61751857     0.10600
H275        H  0.36071086  0.87019133  0.67038269     0.15100
H276        H  0.37513648  0.88633870  0.61198707     0.00800
H277        H  0.31743658  0.87773426  0.63328180     0.15400
H278        H  0.35130918  0.83143568  0.62806067     0.15200
C279        C  0.65879267  0.84914391  0.64194069     0.87000
C280        C  0.66719547  0.86234761  0.62658731    -0.53300
C281        C  0.65415067  0.87469693  0.61889907     0.09900
C282        C  0.63391217  0.87245652  0.62716773     0.20900
C283        C  0.64972324  0.86274319  0.65671016    -0.54000
C284        C  0.63648603  0.87475959  0.64892120     0.10000
C285        C  0.64176381  0.83907223  0.63186554    -0.53500
C286        C  0.62870779  0.85143958  0.62404258     0.10600
H287        H  0.68208466  0.86171559  0.62222628     0.15100
H288        H  0.62336560  0.88255379  0.62088492     0.00800
H289        H  0.65340922  0.86282539  0.67187127     0.15400
H290        H  0.64037132  0.82370510  0.63107180     0.15200
O291        O  0.68888809  0.02281647  0.47941728    -0.71300
O292        O  0.68936329  0.98372897  0.51659965    -0.71500
O293        O  0.69141631  0.02168676  0.51781883    -0.71400
O294        O  0.68667964  0.98476707  0.47850913    -0.71400
O295        O  0.71762877  0.98149247  0.47769290    -0.71300
O296        O  0.72236257  0.02201295  0.51428146    -0.71400
O297        O  0.72051529  0.98347026  0.51625441    -0.71300
O298        O  0.71965551  0.01979835  0.47574944    -0.71500
V299        V  0.68972232  0.00325382  0.49803660     1.35200
V300        V  0.71951625  0.00173196  0.49606304     1.35200
C301        C  0.70409451  0.02769600  0.47091575     0.77900
C302        C  0.70496240  0.97696018  0.52284316     0.78000
C303        C  0.70756880  0.02846999  0.52250122     0.77900
C304        C  0.70118384  0.97636417  0.47179554     0.77800
O305        O  0.48753954  0.01893444  0.70208911    -0.71300
O306        O  0.52354470  0.97821412  0.70364874    -0.71500
O307        O  0.52591217  0.01648745  0.70265453    -0.71400
O308        O  0.48505965  0.98058497  0.70322360    -0.71400
O309        O  0.48669033  0.97809933  0.67219612    -0.71300
O310        O  0.52444715  0.01714345  0.67151524    -0.71400
O311        O  0.52541629  0.97907141  0.67255265    -0.71300
O312        O  0.48593104  0.01617028  0.67105688    -0.71500
V313        V  0.50550552  0.99851908  0.70233325     1.35200
V314        V  0.50562685  0.99760747  0.67242063     1.35200
C315        C  0.48039070  0.02424730  0.68627326     0.77900
C316        C  0.53101484  0.97211989  0.68832965     0.78000
C317        C  0.53181176  0.02325666  0.68698689     0.77900
C318        C  0.47903679  0.97309094  0.68781595     0.77800
O319        O  0.28173578  0.99096614  0.51439725    -0.71300
O320        O  0.28214458  0.02833455  0.47503945    -0.71500
O321        O  0.28189276  0.99001008  0.47566846    -0.71400
O322        O  0.28220525  0.02928999  0.51364306    -0.71400
O323        O  0.31330615  0.03030158  0.51216013    -0.71300
O324        O  0.31295583  0.98854061  0.47769352    -0.71400
O325        O  0.31321914  0.02644029  0.47386458    -0.71300
O326        O  0.31283593  0.99233005  0.51608193    -0.71500
V327        V  0.28255964  0.00962888  0.49469894     1.35200
V328        V  0.31247483  0.00939950  0.49494963     1.35200
C329        C  0.29718467  0.98563123  0.52226796     0.77900
C330        C  0.29774421  0.03344153  0.46747649     0.78000
C331        C  0.29747139  0.98246605  0.47037729     0.77900
C332        C  0.29788866  0.03671482  0.51907012     0.77800
O333        O  0.51992026  0.97499150  0.28462020    -0.71300
O334        O  0.48121708  0.01324298  0.28546457    -0.71500
O335        O  0.51983469  0.01337580  0.28558703    -0.71400
O336        O  0.48124449  0.97483491  0.28451466    -0.71400
O337        O  0.48104993  0.97474816  0.31567412    -0.71300
O338        O  0.52014895  0.01225656  0.31672578    -0.71400
O339        O  0.48176518  0.01285599  0.31661963    -0.71300
O340        O  0.51949376  0.97407224  0.31575713    -0.71500
V341        V  0.50055598  0.99409130  0.28562489     1.35200
V342        V  0.50062649  0.99347924  0.31556031     1.35200
C343        C  0.52620314  0.96794046  0.30009521     0.93900
C344        C  0.47502399  0.01966273  0.30122765     0.78000
C345        C  0.52653166  0.01937473  0.30139463     0.77900
C346        C  0.47444576  0.96838901  0.29997937     0.77800
O347        O  0.47758702  0.79198766  0.48182265    -0.71300
O348        O  0.51602638  0.78875919  0.52103938    -0.71500
O349        O  0.47726235  0.78931977  0.52045579    -0.71400
O350        O  0.51621137  0.79116544  0.48248614    -0.71400
O351        O  0.51808744  0.82187448  0.48587817    -0.71300
O352        O  0.47670146  0.82023338  0.52117873    -0.71400
O353        O  0.51518236  0.81951827  0.52417888    -0.71300
O354        O  0.47976000  0.82282196  0.48294666    -0.71500
V355        V  0.49678256  0.79086945  0.50150979     1.35200
V356        V  0.49741325  0.82049893  0.50353999     1.35200
C357        C  0.47246826  0.80807044  0.47543789     0.77900
C358        C  0.52204878  0.80369464  0.52935724     0.78000
C359        C  0.47000161  0.80449121  0.52692888     0.77900
C360        C  0.52392833  0.80677884  0.47787247     0.77800
C361        C  0.86019734  0.33416541  0.64391729     0.87000
C362        C  0.87170080  0.32371090  0.62819686    -0.53300
C363        C  0.88161766  0.33569263  0.61640542     0.09900
C364        C  0.87912349  0.35671522  0.62145836     0.20900
C365        C  0.87522070  0.34668005  0.65453228    -0.54000
C366        C  0.88516335  0.35851113  0.64251184     0.10000
C367        C  0.84740299  0.34834173  0.63288386    -0.53500
C368        C  0.85751332  0.36029266  0.62125009     0.10600
H369        H  0.87182170  0.30834114  0.62663446     0.15100
H370        H  0.88718015  0.36639717  0.61180207     0.00800
H371        H  0.87777085  0.34598629  0.66988354     0.15400
H372        H  0.83196611  0.34904507  0.63459664     0.15200
C373        C  0.85455280  0.33881934  0.35445465     0.87000
C374        C  0.86526944  0.35306991  0.34154816    -0.53300
C375        C  0.87811495  0.36426669  0.35123119     0.09900
C376        C  0.87924272  0.35992578  0.37283313     0.20900
C377        C  0.87051271  0.32728472  0.36455494    -0.54000
C378        C  0.88355131  0.33852932  0.37418127     0.10000
C379        C  0.84572763  0.35113521  0.37051154    -0.53500
C380        C  0.85871066  0.36223185  0.38018517     0.10600
H381        H  0.86269597  0.35436576  0.32622547     0.15100
H382        H  0.88986223  0.36875342  0.38080892     0.00800
H383        H  0.87140214  0.31187854  0.36390367     0.15400
H384        H  0.83053204  0.35097098  0.37371745     0.15200
C385        C  0.84373938  0.64003694  0.35747447     0.87000
C386        C  0.85582240  0.62788940  0.34360368    -0.53300
C387        C  0.86996849  0.61778263  0.35259004     0.09900
C388        C  0.87049636  0.62051584  0.37444115     0.20900
C389        C  0.83610284  0.62572906  0.37224008    -0.54000
C390        C  0.85020014  0.61546166  0.38111139     0.10000
C391        C  0.85827420  0.65232832  0.36878589    -0.53500
C392        C  0.87243596  0.64212182  0.37760022     0.10600
H393        H  0.85326356  0.62717775  0.32823543     0.15100
H394        H  0.88146032  0.61167080  0.38171112     0.00800
H395        H  0.82097339  0.62416096  0.37542749     0.15400
H396        H  0.85730535  0.66772819  0.36986465     0.15200
C397        C  0.85433982  0.64304199  0.64948077     0.87000
C398        C  0.84415098  0.62935024  0.63539958    -0.53300
C399        C  0.85623440  0.61631729  0.62718497     0.09900
C400        C  0.87721489  0.61832126  0.63390847     0.20900
C401        C  0.86445636  0.63004656  0.66412373    -0.54000
C402        C  0.87655660  0.61717206  0.65591498     0.10000
C403        C  0.87066886  0.65198667  0.63771390    -0.53500
C404        C  0.88262827  0.63898970  0.62943519     0.10600
H405        H  0.82896285  0.63029915  0.63209878     0.15100
H406        H  0.88696027  0.60770206  0.62727887     0.00800
H407        H  0.86234003  0.63101889  0.67951886     0.15400
H408        H  0.87242658  0.66725043  0.63620670     0.15200
O409        O  0.98188930  0.70110049  0.48086131    -0.71300
O410        O  0.02288767  0.70945747  0.51635159    -0.71500
O411        O  0.01998380  0.70506108  0.47783921    -0.71400
O412        O  0.98449695  0.70536160  0.51924105    -0.71400
O413        O  0.98661266  0.67455260  0.52081759    -0.71300
O414        O  0.02513479  0.67495120  0.48272767    -0.71400
O415        O  0.02462024  0.67893977  0.52099455    -0.71300
O416        O  0.98693760  0.67063207  0.48246100    -0.71500
V417        V  0.00240264  0.70470872  0.49865451     1.35200
V418        V  0.00575719  0.67536875  0.50168335     1.35200
C419        C  0.97784036  0.68443989  0.47521117     0.77900
C420        C  0.03031177  0.69555804  0.52516520     0.78000
C421        C  0.02867533  0.68991547  0.47336319     0.77900
C422        C  0.97931829  0.68987596  0.52688561     0.77800
O423        O  0.98881776  0.47115225  0.70017673    -0.71300
O424        O  0.02889377  0.50768943  0.69676585    -0.71500
O425        O  0.99095205  0.50963892  0.70266260    -0.71400
O426        O  0.02691593  0.46951562  0.69395288    -0.71400
O427        O  0.02286435  0.47312765  0.66323801    -0.71300
O428        O  0.98467139  0.51026154  0.67210055    -0.71400
O429        O  0.02286784  0.51125401  0.66636960    -0.71300
O430        O  0.98512461  0.47206375  0.66922427    -0.71500
V431        V  0.00876238  0.48953738  0.69783057     1.35200
V432        V  0.00396517  0.49167714  0.66834123     1.35200
C433        C  0.98063265  0.46486248  0.68521570     0.77900
C434        C  0.03257908  0.51585052  0.68110071     0.78000
C435        C  0.98159338  0.51664708  0.68876003     0.77900
C436        C  0.03106334  0.46467579  0.67694634     0.77800
O437        O  0.98694857  0.51613402  0.31059257    -0.71300
O438        O  0.02501518  0.47765095  0.30887288    -0.71500
O439        O  0.98627502  0.47770791  0.30746769    -0.71400
O440        O  0.02530279  0.51604865  0.31238669    -0.71400
O441        O  0.02388136  0.51314114  0.34337529    -0.71300
O442        O  0.98556737  0.47540824  0.33850190    -0.71400
O443        O  0.02400390  0.47501490  0.33989484    -0.71300
O444        O  0.98539486  0.51339153  0.34159558    -0.71500
V445        V  0.00586870  0.49677694  0.31040239     1.35200
V446        V  0.00476251  0.49427960  0.34020852     1.35200
C447        C  0.97981165  0.52143400  0.32631947     0.77900
C448        C  0.03101599  0.46976477  0.32401449     0.78000
C449        C  0.97915922  0.47018831  0.32234536     0.77900
C450        C  0.03090105  0.52129221  0.32892277     0.77800
O451        O  0.99190481  0.27106331  0.51531573    -0.71300
O452        O  0.03115446  0.27105652  0.47758637    -0.71500
O453        O  0.03063443  0.27180761  0.51633645    -0.71400
O454        O  0.99245684  0.27051560  0.47669669    -0.71400
O455        O  0.99358985  0.30137283  0.47510748    -0.71300
O456        O  0.02867245  0.30265034  0.51689529    -0.71400
O457        O  0.03198014  0.30196579  0.47867650    -0.71300
O458        O  0.99024627  0.30188283  0.51340895    -0.71500
V459        V  0.01154249  0.27166797  0.49648288     1.35200
V460        V  0.01112594  0.30135292  0.49604262     1.35200
C461        C  0.98407287  0.28646180  0.52042389     0.77900
C462        C  0.03848444  0.28653332  0.47197825     0.78000
C463        C  0.03603387  0.28756189  0.52346654     0.77900
C464        C  0.98671392  0.28580498  0.46899699     0.77800
O465        O  0.78923519  0.46714540  0.48615800    -0.71300
O466        O  0.78791310  0.50714722  0.52355983    -0.71500
O467        O  0.78900984  0.50551929  0.48496516    -0.71400
O468        O  0.78776692  0.46871919  0.52471271    -0.71400
O469        O  0.81888094  0.46961658  0.52655464    -0.71300
O470        O  0.82016807  0.50503306  0.48563024    -0.71400
O471        O  0.81905579  0.50766372  0.52384362    -0.71300
O472        O  0.82032611  0.46688787  0.48821686    -0.71500
V473        V  0.78905558  0.48713236  0.50487317     1.35200
V474        V  0.81897620  0.48727741  0.50603210     1.35200
C475        C  0.80510898  0.46009830  0.48098226     0.77900
C476        C  0.80339832  0.51439625  0.52983692     0.78000
C477        C  0.80478633  0.51154254  0.47854245     0.77900
C478        C  0.80309706  0.46303149  0.53250327     0.77800
C479        C  0.16280809  0.34236320  0.64508315     0.87000
C480        C  0.14777013  0.33157208  0.63282345    -0.53300
C481        C  0.13437315  0.34324777  0.62454065     0.09900
C482        C  0.13726209  0.36437047  0.62944610     0.20900
C483        C  0.17135525  0.35732245  0.63142343    -0.54000
C484        C  0.15785649  0.36893770  0.62324886     0.10000
C485        C  0.15117916  0.35410138  0.65964676    -0.53500
C486        C  0.13758894  0.36543544  0.65148851     0.10600
H487        H  0.14790356  0.31623542  0.63094439     0.15100
H488        H  0.12655140  0.37385175  0.62255757     0.00800
H489        H  0.18661921  0.35862330  0.62880682     0.15400
H490        H  0.15344715  0.35341462  0.67506213     0.15200
C491        C  0.15759584  0.65068255  0.34941107     0.87000
C492        C  0.14356040  0.64075254  0.33546180    -0.53300
C493        C  0.12874012  0.63158437  0.34433473     0.09900
C494        C  0.12941311  0.63340059  0.36640287     0.20900
C495        C  0.14527920  0.66391647  0.36185562    -0.54000
C496        C  0.13044511  0.65488052  0.37069799     0.10000
C497        C  0.16403918  0.63484827  0.36317500    -0.53500
C498        C  0.14922691  0.62583372  0.37220431     0.10600
H499        H  0.14563846  0.64034660  0.32003572     0.15100
H500        H  0.11782134  0.62590218  0.37413529     0.00800
H501        H  0.14845192  0.67891881  0.36404767     0.15400
H502        H  0.17900733  0.63132090  0.36542070     0.15200
C503        C  0.15547557  0.64534966  0.64578013     0.87000
C504        C  0.16800869  0.63545347  0.63051816    -0.53300
C505        C  0.15750888  0.62635899  0.61658136     0.09900
C506        C  0.13581045  0.62791244  0.61930452     0.20900
C507        C  0.14186737  0.65856772  0.63438970    -0.54000
C508        C  0.13149064  0.64921394  0.62053827     0.10000
C509        C  0.14227608  0.62938916  0.65345640    -0.53500
C510        C  0.13195218  0.62025585  0.63940925     0.10600
H511        H  0.18357186  0.63580581  0.63072679     0.15100
H512        H  0.12738500  0.62043963  0.60795697     0.00800
H513        H  0.14008240  0.67358107  0.63763070     0.15400
H514        H  0.14119570  0.62591587  0.66856142     0.15200
C515        C  0.15756247  0.34120463  0.34793968     0.87000
C516        C  0.14839695  0.32902412  0.36381948    -0.53300
C517        C  0.14091630  0.33963206  0.37848450     0.09900
C518        C  0.14335915  0.36117504  0.37587410     0.20900
C519        C  0.14149261  0.35503442  0.34166189    -0.54000
C520        C  0.13403437  0.36550505  0.35644390     0.10000
C521        C  0.17242984  0.35388029  0.35831498    -0.53500
C522        C  0.16493354  0.36453942  0.37281787     0.10600
H523        H  0.14785401  0.31358655  0.36334948     0.15100
H524        H  0.13715052  0.36947063  0.38790665     0.00800
H525        H  0.13642603  0.35610561  0.32696347     0.15400
H526        H  0.18738940  0.35478905  0.35413744     0.15200
O527        O  0.21055581  0.51591584  0.47641793    -0.71300
O528        O  0.21346427  0.47611754  0.51316081    -0.71500
O529        O  0.20708768  0.47774125  0.47495405    -0.71400
O530        O  0.21674905  0.51446726  0.51455780    -0.71400
O531        O  0.18600590  0.51788785  0.51805059    -0.71300
O532        O  0.17664337  0.47932233  0.48128889    -0.71400
O533        O  0.18315356  0.47974815  0.51919372    -0.71300
O534        O  0.17968039  0.51726043  0.48027614    -0.71500
V535        V  0.21142115  0.49608839  0.49488495     1.35200
V536        V  0.18199732  0.49847063  0.49963975     1.35200
C537        C  0.19458745  0.52317581  0.47192184     0.77900
C538        C  0.19881471  0.47129261  0.52258454     0.78000
C539        C  0.19006350  0.47230455  0.47150890     0.77900
C540        C  0.20285882  0.52288791  0.52254849     0.77800
C541        C  0.24461697  0.23408933  0.23070031     0.87000
C542        C  0.26036758  0.24642496  0.22200050    -0.53300
C543        C  0.27181050  0.25547177  0.23516020     0.09900
C544        C  0.26641575  0.25091518  0.25614548     0.20900
C545        C  0.25513301  0.22025642  0.24400015    -0.54000
C546        C  0.26657858  0.22890744  0.25737913     0.10000
C547        C  0.23363222  0.24742282  0.24412225    -0.53500
C548        C  0.24492802  0.25628735  0.25764098     0.10600
H549        H  0.26244247  0.24758140  0.20662094     0.15100
H550        H  0.27560203  0.25818578  0.26698132     0.00800
H551        H  0.25346752  0.20489442  0.24305221     0.15400
H552        H  0.21817620  0.24892204  0.24326868     0.15200
C553        C  0.73708733  0.26005959  0.23907754     0.87000
C554        C  0.75200997  0.27125569  0.25092467    -0.53300
C555        C  0.76417174  0.25991185  0.26144907     0.09900
C556        C  0.76011305  0.23842545  0.25890526     0.20900
C557        C  0.74882588  0.24627932  0.22673665    -0.54000
C558        C  0.76104616  0.23491083  0.23706333     0.10000
C559        C  0.72690752  0.24734877  0.25369941    -0.53500
C560        C  0.73880121  0.23580485  0.26402932     0.10600
H561        H  0.75279833  0.28666789  0.25066409     0.15100
H562        H  0.76989015  0.22916022  0.26735840     0.00800
H563        H  0.74766642  0.24606910  0.21122616     0.15400
H564        H  0.71150637  0.24777275  0.25583540     0.15200
C565        C  0.26816759  0.72938336  0.23554870     0.87000
C566        C  0.25546080  0.72116763  0.25131576    -0.53300
C567        C  0.24745832  0.73455800  0.26302953     0.09900
C568        C  0.25306530  0.75512564  0.25780979     0.20900
C569        C  0.25530001  0.74358162  0.22487592    -0.54000
C570        C  0.24729153  0.75717802  0.23651449     0.10000
C571        C  0.28301298  0.74164926  0.24617936    -0.53500
C572        C  0.27530233  0.75524834  0.25786652     0.10600
H573        H  0.25242517  0.70604872  0.25252489     0.15100
H574        H  0.24627902  0.76590392  0.26720365     0.00800
H575        H  0.25300476  0.74267349  0.20951702     0.15400
H576        H  0.29837859  0.73973425  0.24453319     0.15200
C577        C  0.24284528  0.22917254  0.76680488     0.87000
C578        C  0.25416863  0.21915418  0.75089124    -0.53300
C579        C  0.26177023  0.23136202  0.73751298     0.09900
C580        C  0.25732357  0.25254246  0.74160982     0.20900
C581        C  0.25685591  0.24372367  0.77530778    -0.54000
C582        C  0.26468446  0.25595349  0.76230659     0.10000
C583        C  0.22780499  0.24114391  0.75631157    -0.53500
C584        C  0.23514159  0.25326682  0.74292220     0.10600
H585        H  0.25628675  0.20386493  0.75074548     0.15100
H586        H  0.26370842  0.26247554  0.73107467     0.00800
H587        H  0.25997442  0.24449900  0.79057356     0.15400
H588        H  0.21253071  0.23991877  0.75908802     0.15200
C589        C  0.76559237  0.23959687  0.76423502     0.87000
C590        C  0.77706719  0.25364414  0.75205444    -0.53300
C591        C  0.76616923  0.26465525  0.74008280     0.09900
C592        C  0.74441202  0.26092442  0.74209404     0.20900
C593        C  0.75123303  0.25196903  0.77523810    -0.54000
C594        C  0.74005289  0.26335167  0.76372232     0.10000
C595        C  0.75344177  0.22832511  0.74972228    -0.53500
C596        C  0.74205599  0.23939360  0.73823764     0.10600
H597        H  0.79258078  0.25463037  0.75292571     0.15100
H598        H  0.73540878  0.26996409  0.73259957     0.00800
H599        H  0.74997516  0.25127432  0.79071208     0.15400
H600        H  0.75421575  0.21294080  0.74854730     0.15200
C601        C  0.76527644  0.73443928  0.26992286     0.87000
C602        C  0.75196655  0.74814069  0.28056374    -0.53300
C603        C  0.73866937  0.75689099  0.26895474     0.09900
C604        C  0.74016659  0.75090865  0.24761159     0.20900
C605        C  0.75190553  0.72048768  0.25947746    -0.54000
C606        C  0.73877626  0.72892340  0.24769301     0.10000
C607        C  0.77421269  0.74651621  0.25399275    -0.53500
C608        C  0.76113313  0.75523675  0.24229897     0.10600
H609        H  0.75359798  0.75091644  0.29578794     0.15100
H610        H  0.72954460  0.75808505  0.23819513     0.00800
H611        H  0.75296227  0.70513525  0.26105228     0.15400
H612        H  0.78959732  0.74783805  0.25199509     0.15200
C613        C  0.23989558  0.76022564  0.75656031     0.87000
C614        C  0.23028698  0.74660117  0.74222407    -0.53300
C615        C  0.24272049  0.73650894  0.73106327     0.09900
C616        C  0.26397032  0.74144031  0.73520872     0.20900
C617        C  0.25382640  0.74772496  0.76805963    -0.54000
C618        C  0.26653357  0.73772901  0.75695744     0.10000
C619        C  0.25270081  0.77305591  0.74424340    -0.53500
C620        C  0.26544038  0.76334429  0.73289320     0.10600
H621        H  0.21481575  0.74546044  0.74085581     0.15100
H622        H  0.27418329  0.73337889  0.72611337     0.00800
H623        H  0.25361353  0.74715826  0.78360337     0.15400
H624        H  0.25158707  0.78842698  0.74481121     0.15200
C625        C  0.14369636  0.14964167  0.15634648     0.87000
C626        C  0.13498159  0.16029398  0.13905752    -0.53300
C627        C  0.12511442  0.14856940  0.12675191     0.09900
C628        C  0.12475437  0.12770264  0.13297812     0.20900
C629        C  0.12657579  0.13944531  0.16566798    -0.54000
C630        C  0.11662525  0.12797875  0.15330039     0.10000
C631        C  0.15592073  0.13355188  0.14761465    -0.53500
C632        C  0.14579131  0.12202544  0.13538468     0.10600
H633        H  0.13669731  0.17547600  0.13673654     0.15100
H634        H  0.11661017  0.11829167  0.12296795     0.00800
H635        H  0.12261767  0.14148561  0.18055794     0.15400
H636        H  0.17087280  0.13119736  0.15132036     0.15200
C637        C  0.15299516  0.14500340  0.85377783     0.87000
C638        C  0.14362283  0.16017622  0.86659886    -0.53300
C639        C  0.13303611  0.15269928  0.88113264     0.09900
C640        C  0.13311208  0.13084549  0.88179344     0.20900
C641        C  0.16488749  0.13261288  0.86759286    -0.54000
C642        C  0.15440690  0.12497498  0.88220170     0.10000
C643        C  0.13629466  0.13200085  0.84720946    -0.53500
C644        C  0.12590163  0.12453286  0.86201352     0.10600
H645        H  0.14474925  0.17538257  0.86403838     0.15100
H646        H  0.12449831  0.12519105  0.89384507     0.00800
H647        H  0.18004411  0.12968740  0.86564323     0.15400
H648        H  0.13335986  0.12889507  0.83223268     0.15200
C649        C  0.84259783  0.14571589  0.14651798     0.87000
C650        C  0.83565302  0.13154800  0.13102541    -0.53300
C651        C  0.85030528  0.12300370  0.12125676     0.09900
C652        C  0.87032008  0.12937118  0.12793911     0.20900
C653        C  0.85618274  0.13408423  0.15939529    -0.54000
C654        C  0.87059629  0.12525828  0.14964945     0.10000
C655        C  0.85557040  0.15971335  0.13574850    -0.53500
C656        C  0.87020808  0.15123944  0.12610836     0.10600
H657        H  0.82060621  0.12882960  0.12802141     0.15100
H658        H  0.88193035  0.12236757  0.11979184     0.00800
H659        H  0.85414661  0.13243603  0.17473876     0.15400
H660        H  0.85322479  0.17500054  0.13559799     0.15200
C661        C  0.14869079  0.84356066  0.16137000     0.87000
C662        C  0.15953478  0.85971644  0.15109951    -0.53300
C663        C  0.14771549  0.87349127  0.14386790     0.09900
C664        C  0.12639530  0.86982976  0.14761895     0.20900
C665        C  0.13632126  0.85345812  0.17668513    -0.54000
C666        C  0.12483519  0.86743911  0.16946283     0.10000
C667        C  0.13419535  0.83614700  0.14634382    -0.53500
C668        C  0.12248425  0.84999312  0.13908581     0.10600
H669        H  0.17503739  0.86014340  0.14980314     0.15100
H670        H  0.11682121  0.88098995  0.14163542     0.00800
H671        H  0.13686206  0.84995018  0.19184216     0.15400
H672        H  0.13339514  0.82132558  0.14199556     0.15200
C673        C  0.84801272  0.84076797  0.15492856     0.87000
C674        C  0.86308709  0.85404704  0.16405258    -0.53300
C675        C  0.87518456  0.86239057  0.15131349     0.09900
C676        C  0.87100486  0.85657030  0.13036644     0.20900
C677        C  0.83762015  0.85330980  0.13998855    -0.54000
C678        C  0.84981682  0.86169440  0.12712818     0.10000
C679        C  0.85985280  0.82637118  0.14328601    -0.53500
C680        C  0.87179526  0.83468462  0.13028730     0.10600
H681        H  0.86403948  0.85677434  0.17938607     0.15100
H682        H  0.88067104  0.86308369  0.11969383     0.00800
H683        H  0.82227343  0.85579602  0.14018639     0.15400
H684        H  0.85919595  0.81107993  0.14546424     0.15200
O685        O  0.98356078  0.01408554  0.15562213    -0.71300
O686        O  0.02741440  0.98395214  0.16469417    -0.71500
O687        O  0.99138439  0.97699130  0.15281365    -0.71400
O688        O  0.01921414  0.02099243  0.16760239    -0.71400
O689        O  0.01257126  0.01566817  0.19753566    -0.71300
O690        O  0.98073485  0.97431470  0.18192425    -0.71400
O691        O  0.01759562  0.97770610  0.19353904    -0.71300
O692        O  0.97584658  0.01231387  0.18573124    -0.71500
V693        V  0.00525119  0.99889240  0.16078885     1.35200
V694        V  0.99683481  0.99503408  0.18918287     1.35200
C695        C  0.97257113  0.01885733  0.16909481     0.77900
C696        C  0.02986953  0.97538997  0.18039144     0.78000
C697        C  0.98082554  0.96850635  0.16471652     0.77900
C698        C  0.02070631  0.02580484  0.18503787     0.77800
C699        C  0.16176464  0.84773337  0.85253437     0.87000
C700        C  0.17020374  0.86116548  0.86786553    -0.53300
C701        C  0.15685457  0.87127746  0.87785738     0.09900
C702        C  0.13606700  0.86673501  0.87160964     0.20900
C703        C  0.14752364  0.83502719  0.86348844    -0.54000
C704        C  0.13416018  0.84496929  0.87370575     0.10000
C705        C  0.14928479  0.86074676  0.83989473    -0.53500
C706        C  0.13567626  0.87052591  0.84988493     0.10600
H707        H  0.18551449  0.86275783  0.87042510     0.15100
H708        H  0.12487140  0.87488269  0.87916157     0.00800
H709        H  0.14826732  0.81958318  0.86352521     0.15400
H710        H  0.15126322  0.86233359  0.82453904     0.15200
O711        O  0.16459385  0.97699090  0.03744275    -0.71300
O712        O  0.15340356  0.01635695  0.00209581    -0.71500
O713        O  0.15228400  0.97828564  0.00080441    -0.71400
O714        O  0.16568413  0.01485350  0.03864652    -0.71400
O715        O  0.19527853  0.01449693  0.02905008    -0.71300
O716        O  0.18176965  0.97790964  0.99087088    -0.71400
O717        O  0.18295496  0.01606069  0.99235040    -0.71300
O718        O  0.19408571  0.97612184  0.02757466    -0.71500
V719        V  0.15958843  0.99660550  0.01953930     1.35200
V720        V  0.18797596  0.99615023  0.01015827     1.35200
C721        C  0.18124018  0.96999339  0.03872570     0.77900
C722        C  0.16618289  0.02282243  0.99110995     0.78000
C723        C  0.16466519  0.97202301  0.98925518     0.77900
C724        C  0.18273537  0.02077964  0.04044612     0.77800
C725        C  0.84321346  0.14532385  0.85067259     0.87000
C726        C  0.85520043  0.13215623  0.83773988    -0.53300
C727        C  0.86454346  0.11803897  0.84746183     0.09900
C728        C  0.86106637  0.11860491  0.86928255     0.20900
C729        C  0.82981657  0.13199612  0.86193890    -0.54000
C730        C  0.83912658  0.11784315  0.87158625     0.10000
C731        C  0.85758137  0.15286321  0.86576702    -0.53500
C732        C  0.86693822  0.13876894  0.87554302     0.10600
H733        H  0.85638815  0.13402342  0.82232965     0.15100
H734        H  0.86900149  0.10776713  0.87760309     0.00800
H735        H  0.81433692  0.13367910  0.86228894     0.15400
H736        H  0.85983657  0.16791430  0.86852284     0.15200
O737        O  0.97626548  0.19840995  0.98306234    -0.71300
O738        O  0.01690417  0.20285219  0.01916889    -0.71500
O739        O  0.01411318  0.20544908  0.98056402    -0.71400
O740        O  0.97917768  0.19540620  0.02144358    -0.71400
O741        O  0.98473899  0.16513243  0.01816881    -0.71300
O742        O  0.02012784  0.17513970  0.97874032    -0.71400
O743        O  0.02239600  0.17249016  0.01681096    -0.71300
O744        O  0.98214235  0.16820910  0.97977742    -0.71500
V745        V  0.99673025  0.19996170  0.00099169     1.35200
V746        V  0.00219236  0.17084583  0.99839281     1.35200
C747        C  0.97229281  0.18266893  0.97520898     0.77900
C748        C  0.02647152  0.18847243  0.02425986     0.78000
C749        C  0.02330404  0.19185152  0.97299730     0.77900
C750        C  0.97619588  0.17842395  0.02676511     0.77800
C751        C  0.84747817  0.83865109  0.84559401     0.87000
C752        C  0.86100696  0.85005779  0.83263048    -0.53300
C753        C  0.87553339  0.85895990  0.84230463     0.09900
C754        C  0.87493732  0.85579928  0.86416222     0.20900
C755        C  0.86051419  0.82501819  0.85698677    -0.54000
C756        C  0.87470891  0.83410916  0.86703599     0.10000
C757        C  0.84039961  0.85320018  0.86053090    -0.53500
C758        C  0.85492696  0.86218956  0.87027262     0.10600
H759        H  0.85904053  0.85126591  0.81720959     0.15100
H760        H  0.88644821  0.86323923  0.87225119     0.00800
H761        H  0.85810386  0.80976095  0.85781111     0.15400
H762        H  0.82531705  0.85582528  0.86312433     0.15200
O763        O  0.02195461  0.80894290  0.97983485    -0.71300
O764        O  0.98256360  0.79736433  0.01584962    -0.71500
O765        O  0.98318919  0.80672719  0.97861162    -0.71400
O766        O  0.02143472  0.79960361  0.01743919    -0.71400
O767        O  0.02004723  0.82978658  0.02409069    -0.71300
O768        O  0.98073446  0.83639092  0.98720791    -0.71400
O769        O  0.98180157  0.82711440  0.02446623    -0.71300
O770        O  0.01913669  0.83895176  0.98691640    -0.71500
V771        V  0.00229061  0.80368911  0.99808573     1.35200
V772        V  0.00047199  0.83244161  0.00549043     1.35200
C773        C  0.02713762  0.82602807  0.97720231     0.77900
C774        C  0.97549959  0.81032638  0.02626563     0.78000
C775        C  0.97519189  0.82278425  0.97667796     0.77900
C776        C  0.02737079  0.81366289  0.02725687     0.77800
O777        O  0.80358763  0.00608217  0.97684594    -0.71300
O778        O  0.79493572  0.97091418  0.01778413    -0.71500
O779        O  0.79841939  0.00912703  0.01501492    -0.71400
O780        O  0.79979789  0.96809451  0.97963445    -0.71400
O781        O  0.83054093  0.96534137  0.98415689    -0.71300
O782        O  0.82923086  0.00680457  0.01922416    -0.71400
O783        O  0.82572285  0.96891914  0.02218948    -0.71300
O784        O  0.83431563  0.00308365  0.98125002    -0.71500
V785        V  0.79976001  0.98851417  0.99742588     1.35200
V786        V  0.82932745  0.98609235  0.00164555     1.35200
C787        C  0.82056111  0.01033876  0.97200094     0.77900
C788        C  0.80899087  0.96391821  0.02694358     0.78000
C789        C  0.81357385  0.01501339  0.02308813     0.77900
C790        C  0.81536583  0.95985242  0.97575499     0.77800
O791        O  0.98570377  0.97225689  0.84724070    -0.71300
O792        O  0.01935961  0.01420726  0.84240774    -0.71500
O793        O  0.98179874  0.01016751  0.84855446    -0.71400
O794        O  0.02330350  0.97624972  0.84109208    -0.71400
O795        O  0.01720246  0.97546315  0.81049551    -0.71300
O796        O  0.97700848  0.01161619  0.81775810    -0.71400
O797        O  0.01512784  0.01402886  0.81150614    -0.71300
O798        O  0.97938624  0.97325183  0.81668289    -0.71500
V799        V  0.00243311  0.99324840  0.84418736     1.35200
V800        V  0.99730890  0.99363556  0.81465394     1.35200
C801        C  0.97685985  0.96557339  0.83287182     0.77900
C802        C  0.02308507  0.02124044  0.82619483     0.78000
C803        C  0.97241832  0.01677598  0.83454093     0.77900
C804        C  0.02695547  0.96958390  0.82465214     0.77800
C805        C  0.73536106  0.75346156  0.72993182     0.87000
C806        C  0.74894571  0.76549382  0.74240043    -0.53300
C807        C  0.76139606  0.75494355  0.75329033     0.09900
C808        C  0.75900364  0.73328275  0.75051231     0.20900
C809        C  0.74848395  0.74056886  0.71795113    -0.54000
C810        C  0.76100072  0.72993072  0.72876871     0.10000
C811        C  0.72547844  0.73997427  0.74402249    -0.53500
C812        C  0.73777439  0.72912342  0.75469768     0.10600
H813        H  0.74878174  0.78093233  0.74219765     0.15100
H814        H  0.76905934  0.72467135  0.75934202     0.00800
H815        H  0.74745374  0.73983633  0.70244771     0.15400
H816        H  0.71000713  0.73939392  0.74543361     0.15200
C817        C  0.83227212  0.92213253  0.93962942     0.19200
C818        C  0.84775929  0.90948310  0.93873292    -0.18900
C819        C  0.84895903  0.89617344  0.92387507    -0.11200
C820        C  0.83478891  0.89550493  0.90940837     0.21400
C821        C  0.81920781  0.90800152  0.91040091    -0.20500
C822        C  0.81802121  0.92133513  0.92523594    -0.11400
C823        C  0.83586067  0.88188627  0.89319479    -0.15500
C824        C  0.85273943  0.87616878  0.88605066    -0.29400
C825        C  0.83182092  0.93644988  0.95527765    -0.03700
C826        C  0.81551392  0.94454996  0.96134897    -0.40200
H827        H  0.85890055  0.90982342  0.94963509     0.12600
H828        H  0.86087778  0.88632863  0.92388267     0.12200
H829        H  0.80815598  0.90774337  0.89940758     0.11600
H830        H  0.80617798  0.93124619  0.92504904     0.11900
H831        H  0.82250153  0.87716498  0.88669430     0.14600
H832        H  0.86592652  0.88193899  0.89206122     0.13400
H833        H  0.84534878  0.94036036  0.96207729     0.11100
H834        H  0.80177577  0.94024501  0.95534824     0.13100
C835        C  0.93523514  0.81633843  0.93874877     0.19200
C836        C  0.93330507  0.80595791  0.92160193    -0.18900
C837        C  0.91905310  0.81068853  0.90817560    -0.11200
C838        C  0.90630049  0.82575993  0.91188225     0.21400
C839        C  0.90761281  0.83536465  0.92952257    -0.20500
C840        C  0.92180032  0.83066793  0.94285114    -0.11400
C841        C  0.89254728  0.83317950  0.89740225    -0.15500
C842        C  0.88738716  0.82432697  0.88100082    -0.29400
C843        C  0.95150535  0.81230841  0.95199134    -0.03700
C844        C  0.95948019  0.82607665  0.96288882    -0.40200
H845        H  0.94332844  0.79468131  0.91824926     0.12600
H846        H  0.91862527  0.80301375  0.89471468     0.12200
H847        H  0.89785806  0.84688707  0.93286083     0.11600
H848        H  0.92229408  0.83842930  0.95628136     0.11900
H849        H  0.88627000  0.84698601  0.90053578     0.14600
H850        H  0.89176784  0.80981538  0.87804098     0.13400
H851        H  0.95747616  0.79803244  0.95223800     0.11100
H852        H  0.95421243  0.84057657  0.96189681     0.13100
C853        C  0.94303541  0.92312721  0.82443400     0.19200
C854        C  0.92556433  0.92060486  0.81469163    -0.18900
C855        C  0.91350983  0.90530603  0.81923513    -0.11200
C856        C  0.91899725  0.89204561  0.83338730     0.21400
C857        C  0.93698777  0.89409626  0.84228377    -0.20500
C858        C  0.94890829  0.90938603  0.83783267    -0.11400
C859        C  0.90602876  0.87690491  0.84064607    -0.15500
C860        C  0.88916568  0.87195240  0.83259017    -0.29400
C861        C  0.95473131  0.94041228  0.82099109    -0.03700
C862        C  0.96439989  0.94888857  0.83541028    -0.40200
H863        H  0.92086355  0.93094373  0.80417455     0.12600
H864        H  0.89972440  0.90445639  0.81212491     0.12200
H865        H  0.94167155  0.88406935  0.85311756     0.11600
H866        H  0.96263134  0.91056596  0.84509843     0.11900
H867        H  0.91061083  0.86971492  0.85363390     0.14600
H868        H  0.88491446  0.87764102  0.81877303     0.13400
H869        H  0.95476167  0.94664584  0.80674271     0.11100
H870        H  0.96335845  0.94325524  0.84986415     0.13100
C871        C  0.79114897  0.78958196  0.78524405     0.19200
C872        C  0.78647382  0.80549213  0.79647495    -0.18900
C873        C  0.80025262  0.81420673  0.80822227    -0.11200
C874        C  0.81915803  0.80717896  0.80897419     0.21400
C875        C  0.82389174  0.79142796  0.79749696    -0.20500
C876        C  0.81007886  0.78269419  0.78576022    -0.11400
C877        C  0.83454794  0.81630301  0.82074190    -0.15500
C878        C  0.83127828  0.82897600  0.83486452    -0.29400
C879        C  0.77615085  0.78123902  0.77250070    -0.03700
C880        C  0.77639105  0.76308533  0.76619748    -0.40200
H881        H  0.77208114  0.81127390  0.79609842     0.12600
H882        H  0.79599354  0.82666329  0.81624438     0.12200
H883        H  0.83839417  0.78591875  0.79750836     0.11600
H884        H  0.81442582  0.77087691  0.77681111     0.11900
H885        H  0.84931893  0.81246677  0.81767129     0.14600
H886        H  0.81674973  0.83267882  0.83881009     0.13400
H887        H  0.76407861  0.79028718  0.76888133     0.11100
H888        H  0.78755530  0.75349431  0.77108225     0.13100
C889        C  0.93605356  0.16424442  0.93697592     0.19200
C890        C  0.93094072  0.14610187  0.93017566    -0.18900
C891        C  0.91643998  0.14380562  0.91643258    -0.11200
C892        C  0.90646007  0.15968825  0.90919254     0.21400
C893        C  0.91176926  0.17788299  0.91571712    -0.20500
C894        C  0.92636197  0.18019727  0.92943164    -0.11400
C895        C  0.89105829  0.15788747  0.89433676    -0.15500
C896        C  0.88143535  0.14154826  0.89101915    -0.29400
C897        C  0.95185902  0.16569322  0.95145938    -0.03700
C898        C  0.95644425  0.18171184  0.96108407    -0.40200
H899        H  0.93830662  0.13357513  0.93543890     0.12600
H900        H  0.91350605  0.12955497  0.91131011     0.12200
H901        H  0.90458873  0.19039376  0.91016909     0.11600
H902        H  0.93002851  0.19453398  0.93373382     0.11900
H903        H  0.88764554  0.17042609  0.88593599     0.14600
H904        H  0.88448700  0.12912178  0.89966369     0.13400
H905        H  0.95999180  0.15285099  0.95450145     0.11100
H906        H  0.94845232  0.19471887  0.95881445     0.13100
C907        C  0.81697033  0.04638514  0.93040814     0.19200
C908        C  0.80677721  0.06339020  0.92772916    -0.18900
C909        C  0.81255480  0.07660522  0.91384938    -0.11200
C910        C  0.82851764  0.07284403  0.90211834     0.21400
C911        C  0.83806873  0.05538196  0.90425132    -0.20500
C912        C  0.83238592  0.04230230  0.91816138    -0.11400
C913        C  0.83666413  0.08689473  0.88838815    -0.15500
C914        C  0.82886372  0.10383477  0.88382088    -0.29400
C915        C  0.81159947  0.03329049  0.94625878    -0.03700
C916        C  0.82489178  0.02317718  0.95586035    -0.40200
H917        H  0.79473453  0.06676811  0.93687234     0.12600
H918        H  0.80477009  0.08984469  0.91283642     0.12200
H919        H  0.85028579  0.05196433  0.89534522     0.11600
H920        H  0.84016757  0.02903686  0.91935948     0.11900
H921        H  0.85013342  0.08296170  0.88181860     0.14600
H922        H  0.81475446  0.10769994  0.88895468     0.13400
H923        H  0.79673996  0.03284191  0.95085725     0.11100
H924        H  0.83992184  0.02469438  0.95212971     0.13100
C925        C  0.92855469  0.05001582  0.82959045     0.19200
C926        C  0.92250298  0.06418252  0.81673259    -0.18900
C927        C  0.90743681  0.07652355  0.82152587    -0.11200
C928        C  0.89799944  0.07470980  0.83925752     0.21400
C929        C  0.90356700  0.05998781  0.85164937    -0.20500
C930        C  0.91856345  0.04778755  0.84690909    -0.11400
C931        C  0.88264825  0.08779904  0.84597775    -0.15500
C932        C  0.87791411  0.10455341  0.83790039    -0.29400
C933        C  0.94511306  0.03756148  0.82470169    -0.03700
C934        C  0.95642245  0.02993426  0.83837641    -0.40200
H935        H  0.92971159  0.06595463  0.80312787     0.12600
H936        H  0.90337566  0.08737511  0.81133878     0.12200
H937        H  0.89642984  0.05803287  0.86527568     0.11600
H938        H  0.92217172  0.03653349  0.85684875     0.11900
H939        H  0.87537481  0.08357285  0.85897538     0.14600
H940        H  0.88426208  0.10894289  0.82446345     0.13400
H941        H  0.94831904  0.03500878  0.80967698     0.11100
H942        H  0.95394381  0.03339359  0.85334251     0.13100
C943        C  0.16594206  0.93732732  0.94635038     0.19200
C944        C  0.17984948  0.92470294  0.93944580    -0.18900
C945        C  0.17514880  0.91107728  0.92552234    -0.11200
C946        C  0.15641246  0.91005931  0.91787519     0.21400
C947        C  0.14259708  0.92294737  0.92458688    -0.20500
C948        C  0.14728382  0.93648894  0.93859575    -0.11400
C949        C  0.15045626  0.89560440  0.90332235    -0.15500
C950        C  0.16283468  0.88547810  0.89261724    -0.29400
C951        C  0.17146411  0.95125886  0.96147031    -0.03700
C952        C  0.15892647  0.95833390  0.97420875    -0.40200
H953        H  0.19433181  0.92510935  0.94516245     0.12600
H954        H  0.18619882  0.90122301  0.92121931     0.12200
H955        H  0.12809514  0.92258231  0.91891813     0.11600
H956        H  0.13631877  0.94638158  0.94311713     0.11900
H957        H  0.13517961  0.89368507  0.90126151     0.14600
H958        H  0.17812539  0.88779565  0.89424389     0.13400
H959        H  0.18652170  0.95516419  0.96267672     0.11100
H960        H  0.14401336  0.95387857  0.97384698     0.13100
C961        C  0.06861950  0.93534880  0.83522728     0.19200
C962        C  0.08795138  0.93798234  0.84028286    -0.18900
C963        C  0.10010273  0.92232299  0.84266953    -0.11200
C964        C  0.09293232  0.90370854  0.84068608     0.21400
C965        C  0.07362210  0.90104583  0.83551072    -0.20500
C966        C  0.06161988  0.91674624  0.83245679    -0.11400
C967        C  0.10477772  0.88716850  0.84642033    -0.15500
C968        C  0.12314528  0.88513469  0.84105828    -0.29400
C969        C  0.05547319  0.95189825  0.83544352    -0.03700
C970        C  0.04158939  0.95457215  0.82225726    -0.40200
H971        H  0.09353730  0.95218244  0.84280776     0.12600
H972        H  0.11482521  0.92472489  0.84711987     0.12200
H973        H  0.06774473  0.88680347  0.83423521     0.11600
H974        H  0.04664005  0.91433457  0.82900928     0.11900
H975        H  0.09828723  0.87657568  0.85570125     0.14600
H976        H  0.12926016  0.89468789  0.83048714     0.13400
H977        H  0.05723848  0.96216994  0.84702205     0.11100
H978        H  0.04058777  0.94520807  0.80985513     0.13100
C979        C  0.09738288  0.83642254  0.91448105     0.19200
C980        C  0.09449080  0.84557157  0.93215432    -0.18900
C981        C  0.07986004  0.83978945  0.94442936    -0.11200
C982        C  0.06748461  0.82476085  0.93926568     0.21400
C983        C  0.07069362  0.81513440  0.92186830    -0.20500
C984        C  0.08540857  0.82096559  0.90949141    -0.11400
C985        C  0.05139861  0.81884736  0.95197213    -0.15500
C986        C  0.04242302  0.83130312  0.96359305    -0.29400
C987        C  0.11231913  0.84435733  0.90152861    -0.03700
C988        C  0.11962363  0.83549599  0.88603493    -0.40200
H989        H  0.10355557  0.85740159  0.93647826     0.12600
H990        H  0.07838550  0.84709290  0.95802842     0.12200
H991        H  0.06148898  0.80338964  0.91762883     0.11600
H992        H  0.08697168  0.81366158  0.89591656     0.11900
H993        H  0.04657134  0.80413340  0.95142283     0.14600
H994        H  0.04638298  0.84625361  0.96323983     0.13400
H995        H  0.11798077  0.85825970  0.90542441     0.11100
H996        H  0.11560892  0.82092736  0.88269184     0.13100
C997        C  0.94336810  0.92794967  0.16395051     0.19200
C998        C  0.92807668  0.92319872  0.17603296    -0.18900
C999        C  0.91472175  0.90928995  0.17063949    -0.11200
C1000       C  0.91653062  0.89956548  0.15304318     0.21400
C1001       C  0.93193795  0.90417260  0.14104713    -0.20500
C1002       C  0.94529787  0.91808756  0.14644286    -0.11400
C1003       C  0.90228462  0.88520717  0.14627033    -0.15500
C1004       C  0.89013503  0.87603942  0.15801019    -0.29400
C1005       C  0.95678584  0.94329057  0.17018548    -0.03700
C1006       C  0.96873136  0.95247356  0.15826806    -0.40200
H1007       H  0.92621520  0.93056545  0.18957497     0.12600
H1008       H  0.90280219  0.90667317  0.18011905     0.12200
H1009       H  0.93368141  0.89692791  0.12742263     0.11600
H1010       H  0.95710331  0.92084739  0.13686922     0.11900
H1011       H  0.90214775  0.88209411  0.13105469     0.14600
H1012       H  0.89099539  0.87850327  0.17335312     0.13400
H1013       H  0.95614711  0.94783276  0.18509454     0.11100
H1014       H  0.96924531  0.94886977  0.14315577     0.13100
C1015       C  0.82443970  0.89989917  0.09595892     0.19200
C1016       C  0.80801222  0.90122886  0.08424991    -0.18900
C1017       C  0.80618749  0.91604663  0.07081902    -0.11200
C1018       C  0.82070981  0.92994015  0.06914169     0.21400
C1019       C  0.83657694  0.92903256  0.08158152    -0.20500
C1020       C  0.83839213  0.91432799  0.09484973    -0.11400
C1021       C  0.82103683  0.94476788  0.05389378    -0.15500
C1022       C  0.80614175  0.94998043  0.04265246    -0.29400
C1023       C  0.82711121  0.88350327  0.10925527    -0.03700
C1024       C  0.84471795  0.87625437  0.11251511    -0.40200
H1025       H  0.79693089  0.89042940  0.08501916     0.12600
H1026       H  0.79378597  0.91615379  0.06143272     0.12200
H1027       H  0.84788337  0.93961070  0.08081115     0.11600
H1028       H  0.85086252  0.91422876  0.10418202     0.11900
H1029       H  0.83475186  0.95181305  0.05169790     0.14600
H1030       H  0.79194800  0.94403606  0.04479091     0.13400
H1031       H  0.81462078  0.87743038  0.11616645     0.11100
H1032       H  0.85668160  0.88188745  0.10438068     0.13100
C1033       C  0.93972153  0.81550873  0.06753581     0.19200
C1034       C  0.94109483  0.81689941  0.08758705    -0.18900
C1035       C  0.92464770  0.81970686  0.09868436    -0.11200
C1036       C  0.90661298  0.82178213  0.08980715     0.21400
C1037       C  0.90518279  0.81980486  0.06980964    -0.20500
C1038       C  0.92153975  0.81639209  0.05877594    -0.11400
C1039       C  0.88992272  0.82906374  0.10066309    -0.15500
C1040       C  0.88593415  0.82392073  0.11876037    -0.29400
C1041       C  0.95738983  0.81625094  0.05583132    -0.03700
C1042       C  0.95959853  0.80623497  0.03953672    -0.40200
H1043       H  0.95499984  0.81652488  0.09459411     0.12600
H1044       H  0.92623388  0.82160484  0.11403633     0.12200
H1045       H  0.89147743  0.82163886  0.06265288     0.11600
H1046       H  0.92013172  0.81579206  0.04330398     0.11900
H1047       H  0.88094512  0.83963463  0.09365842     0.14600
H1048       H  0.89363584  0.81224801  0.12545874     0.13400
H1049       H  0.96869816  0.82594370  0.06045788     0.11100
H1050       H  0.94917551  0.79539163  0.03551871     0.13100
C1051       C  0.17654561  0.93818542  0.08339123     0.19200
C1052       C  0.16832491  0.94131611  0.10144028    -0.18900
C1053       C  0.16721449  0.92665353  0.11484064    -0.11200
C1054       C  0.17403182  0.90836286  0.11034509     0.21400
C1055       C  0.18343068  0.90551251  0.09280421    -0.20500
C1056       C  0.18461641  0.92027231  0.07935367    -0.11400
C1057       C  0.17026171  0.89186649  0.12310718    -0.15500
C1058       C  0.15386768  0.89059983  0.13314200    -0.29400
C1059       C  0.17442787  0.95327406  0.06868220    -0.03700
C1060       C  0.18548818  0.95510100  0.05303957    -0.40200
H1061       H  0.16219551  0.95503875  0.10498258     0.12600
H1062       H  0.16053178  0.92954536  0.12852003     0.12200
H1063       H  0.18892790  0.89157749  0.08908196     0.11600
H1064       H  0.19088532  0.91728772  0.06550842     0.11900
H1065       H  0.17995009  0.87979611  0.12256342     0.14600
H1066       H  0.14336221  0.90193217  0.13203795     0.13400
H1067       H  0.16301838  0.96356355  0.07094922     0.11100
H1068       H  0.19791285  0.94606468  0.05095783     0.13100
C1069       C  0.06576557  0.93645891  0.19504097     0.19200
C1070       C  0.06314789  0.91682138  0.19774034    -0.18900
C1071       C  0.07792480  0.90400407  0.19337195    -0.11200
C1072       C  0.09560577  0.91074331  0.18642706     0.21400
C1073       C  0.09865266  0.93045208  0.18531736    -0.20500
C1074       C  0.08397495  0.94318677  0.18971082    -0.11400
C1075       C  0.11002423  0.89798988  0.17754421    -0.15500
C1076       C  0.11205008  0.87936240  0.18142300    -0.29400
C1077       C  0.04901806  0.94952771  0.19581344    -0.03700
C1078       C  0.04697714  0.96329216  0.18258514    -0.40200
H1079       H  0.04927600  0.91131940  0.20195647     0.12600
H1080       H  0.07501027  0.88889248  0.19420703     0.12200
H1081       H  0.11218302  0.93601369  0.18017101     0.11600
H1082       H  0.08662499  0.95829479  0.18810208     0.11900
H1083       H  0.11926260  0.90429604  0.16675388     0.14600
H1084       H  0.10444472  0.87284951  0.19326354     0.13400
H1085       H  0.03741760  0.94654802  0.20570885     0.11100
H1086       H  0.05787118  0.96492758  0.17162330     0.13100
C1087       C  0.09160908  0.83033341  0.09681996     0.19200
C1088       C  0.08552605  0.81236365  0.09018877    -0.18900
C1089       C  0.07178793  0.81077848  0.07544673    -0.11200
C1090       C  0.06404292  0.82724517  0.06694882     0.21400
C1091       C  0.07057043  0.84511794  0.07327211    -0.20500
C1092       C  0.08424285  0.84668409  0.08784860    -0.11400
C1093       C  0.04886307  0.82696837  0.05186289    -0.15500
C1094       C  0.04253323  0.81155959  0.04208679    -0.29400
C1095       C  0.10596190  0.83169902  0.11269892    -0.03700
C1096       C  0.10752282  0.84721703  0.12407005    -0.40200
H1097       H  0.09118067  0.79952782  0.09665753     0.12600
H1098       H  0.06713517  0.79672700  0.07106290     0.12200
H1099       H  0.06507182  0.85805370  0.06685626     0.11600
H1100       H  0.08912962  0.86078944  0.09179353     0.11900
H1101       H  0.04260229  0.84070933  0.04839936     0.14600
H1102       H  0.04850461  0.79755263  0.04464277     0.13400
H1103       H  0.11534433  0.81960999  0.11498272     0.11100
H1104       H  0.09769730  0.85899798  0.12212752     0.13100
C1105       C  0.93932047  0.17988353  0.06746736     0.19200
C1106       C  0.92041890  0.18655340  0.06846284    -0.18900
C1107       C  0.90779297  0.17928447  0.08219322    -0.11200
C1108       C  0.91405583  0.16545721  0.09543619     0.21400
C1109       C  0.93324628  0.15952536  0.09492800    -0.20500
C1110       C  0.94577055  0.16668417  0.08116618    -0.11400
C1111       C  0.90088409  0.15571604  0.10894490    -0.15500
C1112       C  0.88354717  0.16235635  0.11395326    -0.29400
C1113       C  0.95189330  0.18606608  0.05156097    -0.03700
C1114       C  0.96353458  0.17358515  0.04284033    -0.40200
H1115       H  0.91518041  0.19674792  0.05805464     0.12600
H1116       H  0.89304807  0.18399559  0.08181242     0.12200
H1117       H  0.93848799  0.14898773  0.10498561     0.11600
H1118       H  0.96044477  0.16166418  0.08106718     0.11900
H1119       H  0.90591541  0.14247671  0.11515972     0.14600
H1120       H  0.87894137  0.17635816  0.10933016     0.13400
H1121       H  0.95065064  0.20050886  0.04616013     0.11100
H1122       H  0.96355566  0.15880370  0.04740925     0.13100
C1123       C  0.90478328  0.08264550  0.15831377     0.19200
C1124       C  0.90738515  0.06554801  0.14821983    -0.18900
C1125       C  0.92016204  0.05178417  0.15486167    -0.11200
C1126       C  0.93099165  0.05488894  0.17167243     0.21400
C1127       C  0.92789249  0.07163448  0.18226469    -0.20500
C1128       C  0.91499697  0.08548800  0.17560573    -0.11400
C1129       C  0.94610684  0.04118383  0.17775703    -0.15500
C1130       C  0.95649540  0.03171297  0.16464250    -0.29400
C1131       C  0.89191137  0.09719976  0.14967011    -0.03700
C1132       C  0.88411627  0.11193149  0.15922359    -0.40200
H1133       H  0.89959274  0.06286466  0.13498560     0.12600
H1134       H  0.92164965  0.03875419  0.14667393     0.12200
H1135       H  0.93598911  0.07431637  0.19530912     0.11600
H1136       H  0.91358664  0.09855748  0.18370827     0.11900
H1137       H  0.94968031  0.03993773  0.19289363     0.14600
H1138       H  0.95393696  0.03433635  0.14949624     0.13400
H1139       H  0.88789456  0.09497701  0.13476075     0.11100
H1140       H  0.88644206  0.11352496  0.17454268     0.13100
C1141       C  0.82878215  0.05318752  0.06026179     0.19200
C1142       C  0.84667285  0.05920687  0.06732712    -0.18900
C1143       C  0.84802824  0.07378728  0.08089802    -0.11200
C1144       C  0.83142997  0.08295428  0.08765076     0.21400
C1145       C  0.81348090  0.07679216  0.08081663    -0.20500
C1146       C  0.81210862  0.06210064  0.06724706    -0.11400
C1147       C  0.83231874  0.09832026  0.10239619    -0.15500
C1148       C  0.84819736  0.10881847  0.10559093    -0.29400
C1149       C  0.82846295  0.03725486  0.04613953    -0.03700
C1150       C  0.81274884  0.03108664  0.03670532    -0.40200
H1151       H  0.85973819  0.05245278  0.06246064     0.12600
H1152       H  0.86212936  0.07740437  0.08632277     0.12200
H1153       H  0.80045585  0.08337413  0.08600584     0.11600
H1154       H  0.79795623  0.05776053  0.06259750     0.11900
H1155       H  0.81958079  0.10086257  0.11089456     0.14600
H1156       H  0.86080090  0.10662144  0.09685012     0.13400
H1157       H  0.84204572  0.03024016  0.04328869     0.11100
H1158       H  0.79892639  0.03775830  0.03879164     0.13100
C1159       C  0.16803559  0.05806260  0.94878225     0.19200
C1160       C  0.18209247  0.06979215  0.94057752    -0.18900
C1161       C  0.17724554  0.08285621  0.92618399    -0.11200
C1162       C  0.15816878  0.08426160  0.91955994     0.21400
C1163       C  0.14427852  0.07214272  0.92747042    -0.20500
C1164       C  0.14910034  0.05919144  0.94182968    -0.11400
C1165       C  0.15172439  0.09802928  0.90466274    -0.15500
C1166       C  0.16269683  0.11147121  0.89636138    -0.29400
C1167       C  0.17361677  0.04430031  0.96399288    -0.03700
C1168       C  0.16111493  0.03757266  0.97697697    -0.40200
H1169       H  0.19684675  0.06897919  0.94546726     0.12600
H1170       H  0.18850574  0.09169846  0.92042147     0.12200
H1171       H  0.12952085  0.07269711  0.92253459     0.11600
H1172       H  0.13796792  0.04989191  0.94715980     0.11900
H1173       H  0.13680548  0.09689011  0.90026219     0.14600
H1174       H  0.17792242  0.11246438  0.89939895     0.13400
H1175       H  0.18848283  0.03970242  0.96460710     0.11100
H1176       H  0.14645325  0.04271144  0.97716892     0.13100
C1177       C  0.09134850  0.16974088  0.91247479     0.19200
C1178       C  0.07155757  0.17152152  0.90916926    -0.18900
C1179       C  0.05949037  0.17830581  0.92361158    -0.11200
C1180       C  0.06699545  0.18285467  0.94180266     0.21400
C1181       C  0.08684480  0.18152901  0.94495939    -0.20500
C1182       C  0.09899141  0.17530216  0.93032852    -0.11400
C1183       C  0.05414303  0.18531049  0.95840793    -0.15500
C1184       C  0.03746881  0.19486462  0.95773347    -0.29400
C1185       C  0.10326375  0.15975565  0.89812963    -0.03700
C1186       C  0.12156343  0.16444279  0.89443237    -0.40200
H1187       H  0.06535738  0.16705106  0.89559274     0.12600
H1188       H  0.04416757  0.17868065  0.92098718     0.12200
H1189       H  0.09284416  0.18458514  0.95901024     0.11600
H1190       H  0.11414267  0.17365085  0.93339013     0.11900
H1191       H  0.05802283  0.17779442  0.97148746     0.14600
H1192       H  0.03376264  0.20366492  0.94548442     0.13400
H1193       H  0.09663159  0.14809908  0.89018688     0.11100
H1194       H  0.12794746  0.17712868  0.90075153     0.13100
C1195       C  0.05745670  0.06218907  0.84018500     0.19200
C1196       C  0.05976415  0.07300129  0.85700240    -0.18900
C1197       C  0.07371556  0.08724473  0.85821199    -0.11200
C1198       C  0.08598567  0.09079992  0.84264672     0.21400
C1199       C  0.08333007  0.08035165  0.82563257    -0.20500
C1200       C  0.06929018  0.06612014  0.82439335    -0.11400
C1201       C  0.10171619  0.10513607  0.84364257    -0.15500
C1202       C  0.10963393  0.11094695  0.86032273    -0.29400
C1203       C  0.04334140  0.04632888  0.84029148    -0.03700
C1204       C  0.03647983  0.03744655  0.82451820    -0.40200
H1205       H  0.05076635  0.07035754  0.86934031     0.12600
H1206       H  0.07468305  0.09541835  0.87134849     0.12200
H1207       H  0.09249503  0.08287351  0.81339792     0.11600
H1208       H  0.06823053  0.05793046  0.81127597     0.11900
H1209       H  0.10740953  0.11029895  0.83018151     0.14600
H1210       H  0.10445990  0.10516433  0.87372777     0.13400
H1211       H  0.03823458  0.04178982  0.85426414     0.11100
H1212       H  0.04044370  0.04210235  0.81026499     0.13100
C1213       C  0.17845656  0.05266709  0.08518575     0.19200
C1214       C  0.16776727  0.05099813  0.10207213    -0.18900
C1215       C  0.16669952  0.06612646  0.11497969    -0.11200
C1216       C  0.17612712  0.08337866  0.11113254     0.21400
C1217       C  0.18814928  0.08458842  0.09512041    -0.20500
C1218       C  0.18923817  0.06936593  0.08211339    -0.11400
C1219       C  0.17139098  0.10073358  0.12224960    -0.15500
C1220       C  0.15292201  0.10454447  0.12605483    -0.29400
C1221       C  0.17590964  0.03771953  0.07032414    -0.03700
C1222       C  0.18775626  0.03480272  0.05546104    -0.40200
H1223       H  0.15947400  0.03824686  0.10486378     0.12600
H1224       H  0.15766934  0.06470537  0.12749193     0.12200
H1225       H  0.19556335  0.09776658  0.09194356     0.11600
H1226       H  0.19749191  0.07124579  0.06916655     0.11900
H1227       H  0.18251161  0.11115635  0.12537842     0.14600
H1228       H  0.14195028  0.09471619  0.12094396     0.13400
H1229       H  0.16324118  0.02874746  0.07157457     0.11100
H1230       H  0.20118606  0.04253405  0.05431312     0.13100
C1231       C  0.07539206  0.10197234  0.17859936     0.19200
C1232       C  0.07524427  0.08896208  0.19380771    -0.18900
C1233       C  0.06127464  0.07463310  0.19445504    -0.11200
C1234       C  0.04715099  0.07341117  0.17996508     0.21400
C1235       C  0.04636560  0.08756494  0.16585178    -0.20500
C1236       C  0.06026200  0.10177641  0.16521738    -0.11400
C1237       C  0.03457311  0.05660853  0.17734843    -0.15500
C1238       C  0.03161520  0.04296302  0.19046381    -0.29400
C1239       C  0.09229479  0.11433658  0.17567895    -0.03700
C1240       C  0.09919730  0.11697685  0.15790975    -0.40200
H1241       H  0.08668229  0.08906140  0.20439511     0.12600
H1242       H  0.06238446  0.06397822  0.20555987     0.12200
H1243       H  0.03549059  0.08710024  0.15468583     0.11600
H1244       H  0.05965344  0.11210442  0.15372421     0.11900
H1245       H  0.02776862  0.05506180  0.16333880     0.14600
H1246       H  0.03692816  0.04434224  0.20505391     0.13400
H1247       H  0.09997690  0.11967358  0.18816387     0.11100
H1248       H  0.09211227  0.11004754  0.14584433     0.13100
C1249       C  0.06933008  0.17774856  0.05762897     0.19200
C1250       C  0.08603563  0.16686079  0.05571865    -0.18900
C1251       C  0.09925482  0.16567136  0.07078307    -0.11200
C1252       C  0.09583287  0.17507186  0.08828418     0.21400
C1253       C  0.07964721  0.18678038  0.08988445    -0.20500
C1254       C  0.06642257  0.18804912  0.07474108    -0.11400
C1255       C  0.10808734  0.17161835  0.10542452    -0.15500
C1256       C  0.11546017  0.15427064  0.10873617    -0.29400
C1257       C  0.05460554  0.17672144  0.04218631    -0.03700
C1258       C  0.04170268  0.19051346  0.03889166    -0.40200
H1259       H  0.08867932  0.15892833  0.04264589     0.12600
H1260       H  0.11192446  0.15700384  0.06886516     0.12200
H1261       H  0.07672203  0.19416782  0.10321312     0.11600
H1262       H  0.05353985  0.19632858  0.07687050     0.11900
H1263       H  0.10912142  0.18258897  0.11640154     0.14600
H1264       H  0.11258643  0.14285432  0.09857698     0.13400
H1265       H  0.05451234  0.16414165  0.03305381     0.11100
H1266       H  0.04235402  0.20376193  0.04692889     0.13100
C1267       C  0.18797193  0.81411459  0.81628293     0.19200
C1268       C  0.18304585  0.80704700  0.79805503    -0.18900
C1269       C  0.19642798  0.79716744  0.78694743    -0.11200
C1270       C  0.21511451  0.79378452  0.79394832     0.21400
C1271       C  0.22007028  0.80083761  0.81219717    -0.20500
C1272       C  0.20666628  0.81077258  0.82331621    -0.11400
C1273       C  0.22981179  0.78338173  0.78244587    -0.15500
C1274       C  0.22519234  0.77078033  0.76854600    -0.29400
C1275       C  0.17310932  0.82458791  0.82747473    -0.03700
C1276       C  0.17718931  0.83692465  0.84176498    -0.40200
H1277       H  0.16881006  0.80942553  0.79223085     0.12600
H1278       H  0.19210594  0.79257095  0.77274810     0.12200
H1279       H  0.23432335  0.79846171  0.81797487     0.11600
H1280       H  0.21097516  0.81550018  0.83747571     0.11900
H1281       H  0.24487144  0.78570466  0.78585227     0.14600
H1282       H  0.21018993  0.76761595  0.76579249     0.13400
H1283       H  0.15817706  0.82268258  0.82329940     0.11100
H1284       H  0.19202553  0.83969728  0.84564014     0.13100
C1285       C  0.78979327  0.79032485  0.21089278     0.19200
C1286       C  0.79934485  0.80743045  0.21503050    -0.18900
C1287       C  0.80870766  0.81753800  0.20060453    -0.11200
C1288       C  0.80931988  0.81040533  0.18167634     0.21400
C1289       C  0.79909472  0.79361585  0.17741056    -0.20500
C1290       C  0.78939198  0.78365843  0.19185456    -0.11400
C1291       C  0.82081004  0.81978286  0.16627285    -0.15500
C1292       C  0.83531687  0.83195170  0.17009933    -0.29400
C1293       C  0.78226491  0.77889748  0.22706376    -0.03700
C1294       C  0.76678387  0.76745161  0.22590219    -0.40200
H1295       H  0.79973968  0.81290850  0.22957962     0.12600
H1296       H  0.81551272  0.83082865  0.20454155     0.12200
H1297       H  0.79913466  0.78784596  0.16298101     0.11600
H1298       H  0.78236871  0.77033799  0.18828330     0.11900
H1299       H  0.81800611  0.81582534  0.15143367     0.14600
H1300       H  0.83883680  0.83533254  0.18487555     0.13400
H1301       H  0.78974594  0.78022929  0.24073435     0.11100
H1302       H  0.75792435  0.76730123  0.21304218     0.13100
C1303       C  0.80745906  0.17179180  0.81666328     0.19200
C1304       C  0.78957172  0.16653241  0.80891273    -0.18900
C1305       C  0.77803475  0.17988315  0.79948981    -0.11200
C1306       C  0.78426230  0.19874549  0.79720114     0.21400
C1307       C  0.80225559  0.20405737  0.80482388    -0.20500
C1308       C  0.81374441  0.19072520  0.81441178    -0.11400
C1309       C  0.77161044  0.21240121  0.78682850    -0.15500
C1310       C  0.77839925  0.22719599  0.77665201    -0.29400
C1311       C  0.81908487  0.15704259  0.82673384    -0.03700
C1312       C  0.83272783  0.16096823  0.83996368    -0.40200
H1313       H  0.78439541  0.15205217  0.81032899     0.12600
H1314       H  0.76426863  0.17539037  0.79375096     0.12200
H1315       H  0.80742116  0.21853929  0.80364067     0.11600
H1316       H  0.82759295  0.19529410  0.81979094     0.11900
H1317       H  0.75632847  0.20932943  0.78622130     0.14600
H1318       H  0.79375307  0.22973442  0.77621777     0.13400
H1319       H  0.81558317  0.14219705  0.82392377     0.11100
H1320       H  0.83598552  0.17562621  0.84371096     0.13100
C1321       C  0.19002831  0.17376460  0.82345638     0.19200
C1322       C  0.20877658  0.18035257  0.82680334    -0.18900
C1323       C  0.21910896  0.18949099  0.81231352    -0.11200
C1324       C  0.21076228  0.19258835  0.79412369     0.21400
C1325       C  0.19212605  0.18571767  0.79068310    -0.20500
C1326       C  0.18180786  0.17653292  0.80516306    -0.11400
C1327       C  0.22073624  0.20331045  0.77860349    -0.15500
C1328       C  0.23459745  0.21626565  0.78213035    -0.29400
C1329       C  0.17929506  0.16486471  0.83958491    -0.03700
C1330       C  0.16414887  0.15315781  0.83709527    -0.40200
H1331       H  0.21549169  0.17838952  0.84071192     0.12600
H1332       H  0.23362847  0.19399110  0.81547879     0.12200
H1333       H  0.18530466  0.18791926  0.77686416     0.11600
H1334       H  0.16723476  0.17216340  0.80205868     0.11900
H1335       H  0.21542574  0.20175508  0.76398836     0.14600
H1336       H  0.23935445  0.21866126  0.79677868     0.13400
H1337       H  0.18418216  0.16783750  0.85412989     0.11100
H1338       H  0.15956321  0.14928293  0.82270817     0.13100
C1339       C  0.21405771  0.78915587  0.20493114     0.19200
C1340       C  0.20549444  0.78672992  0.18680192    -0.18900
C1341       C  0.19292144  0.80033825  0.17938941    -0.11200
C1342       C  0.18848274  0.81679610  0.19000756     0.21400
C1343       C  0.19734095  0.81949328  0.20796068    -0.20500
C1344       C  0.20996197  0.80584001  0.21540946    -0.11400
C1345       C  0.17526755  0.83167001  0.18248476    -0.15500
C1346       C  0.16162198  0.82812833  0.16917054    -0.29400
C1347       C  0.22749611  0.77413163  0.21181891    -0.03700
C1348       C  0.23410987  0.77259435  0.22997807    -0.40200
H1349       H  0.20859145  0.77421711  0.17824065     0.12600
H1350       H  0.18705957  0.79801470  0.16517784     0.12200
H1351       H  0.19443615  0.83220177  0.21629180     0.11600
H1352       H  0.21659005  0.80865271  0.22917836     0.11900
H1353       H  0.17647568  0.84597537  0.18837751     0.14600
H1354       H  0.15952232  0.81376459  0.16378847     0.13400
H1355       H  0.23161933  0.76354810  0.20130165     0.11100
H1356       H  0.22948835  0.78261435  0.24083662     0.13100
C1357       C  0.78847604  0.20259961  0.20089210     0.19200
C1358       C  0.78388140  0.19432934  0.18306548    -0.18900
C1359       C  0.79707319  0.18280074  0.17345771    -0.11200
C1360       C  0.81528827  0.17931243  0.18148009     0.21400
C1361       C  0.81993838  0.18764243  0.19924823    -0.20500
C1362       C  0.80671907  0.19912287  0.20889709    -0.11400
C1363       C  0.83025071  0.16823192  0.17123400    -0.15500
C1364       C  0.82654136  0.15546484  0.15721996    -0.29400
C1365       C  0.77431791  0.21567640  0.20991456    -0.03700
C1366       C  0.77470071  0.22097289  0.22854560    -0.40200
H1367       H  0.77007339  0.19700133  0.17639708     0.12600
H1368       H  0.79311351  0.17719907  0.15951768     0.12200
H1369       H  0.83397804  0.18543915  0.20560158     0.11600
H1370       H  0.81113969  0.20565008  0.22227658     0.11900
H1371       H  0.84511111  0.17065293  0.17541880     0.14600
H1372       H  0.81185860  0.15206644  0.15324530     0.13400
H1373       H  0.76292988  0.22086026  0.20067224     0.11100
H1374       H  0.78522669  0.21484836  0.23820641     0.13100
C1375       C  0.18145932  0.18352753  0.17957137     0.19200
C1376       C  0.19995453  0.18928810  0.17427297    -0.18900
C1377       C  0.21182370  0.19897720  0.18726212    -0.11200
C1378       C  0.20531286  0.20330567  0.20585205     0.21400
C1379       C  0.18675710  0.19778039  0.21108345    -0.20500
C1380       C  0.17484708  0.18820426  0.19807333    -0.11400
C1381       C  0.21758575  0.21304016  0.22032813    -0.15500
C1382       C  0.23229879  0.22446212  0.21566222    -0.29400
C1383       C  0.16978589  0.17240853  0.16553525    -0.03700
C1384       C  0.15441437  0.16200860  0.17049502    -0.40200
H1385       H  0.20541873  0.18590558  0.16014941     0.12600
H1386       H  0.22621527  0.20253970  0.18280280     0.12200
H1387       H  0.18138966  0.20101274  0.22528165     0.11600
H1388       H  0.16051375  0.18469865  0.20268710     0.11900
H1389       H  0.21409110  0.21123323  0.23539661     0.14600
H1390       H  0.23545322  0.22720815  0.20070194     0.13400
H1391       H  0.17455145  0.17188666  0.15071784     0.11100
H1392       H  0.14970091  0.16166547  0.18526258     0.13100
C1393       C  0.19126238  0.43704989  0.42901316     0.19200
C1394       C  0.20271913  0.42150041  0.42372139    -0.18900
C1395       C  0.19576421  0.40775175  0.41074789    -0.11200
C1396       C  0.17728181  0.40957223  0.40264363     0.21400
C1397       C  0.16641487  0.42575222  0.40713952    -0.20500
C1398       C  0.17331216  0.43935549  0.42003612    -0.11400
C1399       C  0.16798462  0.39476096  0.39042042    -0.15500
C1400       C  0.17633864  0.37880247  0.38379292    -0.29400
C1401       C  0.19780166  0.45044102  0.44430530    -0.03700
C1402       C  0.18514091  0.45841531  0.45638505    -0.40200
H1403       H  0.21672832  0.41958311  0.43022509     0.12600
H1404       H  0.20467504  0.39556897  0.40765769     0.12200
H1405       H  0.15226268  0.42771584  0.40095124     0.11600
H1406       H  0.16441536  0.45158699  0.42311861     0.11900
H1407       H  0.15306167  0.39726269  0.38665901     0.14600
H1408       H  0.19155601  0.37631265  0.38577750     0.13400
H1409       H  0.21305213  0.45315610  0.44613165     0.11100
H1410       H  0.17005082  0.45469834  0.45518007     0.13100
C1411       C  0.21035614  0.28744446  0.28836730     0.19200
C1412       C  0.19390299  0.29816480  0.28409852    -0.18900
C1413       C  0.18406574  0.30799281  0.29847906    -0.11200
C1414       C  0.19042989  0.30734218  0.31769593     0.21400
C1415       C  0.20683568  0.29648225  0.32198068    -0.20500
C1416       C  0.21668855  0.28663289  0.30755146    -0.11400
C1417       C  0.18062751  0.31770191  0.33367894    -0.15500
C1418       C  0.16588412  0.32993729  0.33136285    -0.29400
C1419       C  0.21950683  0.27642369  0.27255043    -0.03700
C1420       C  0.23722805  0.26867118  0.27326102    -0.40200
H1421       H  0.18852016  0.29886991  0.26950315     0.12600
H1422       H  0.17145130  0.31585002  0.29427239     0.12200
H1423       H  0.21204783  0.29554362  0.33661830     0.11600
H1424       H  0.22895513  0.27812847  0.31161313     0.11900
H1425       H  0.18622817  0.31567478  0.34811633     0.14600
H1426       H  0.15996514  0.33261642  0.31724985     0.13400
H1427       H  0.21106855  0.27485987  0.25951936     0.11100
H1428       H  0.24650398  0.27131345  0.28552091     0.13100
C1429       C  0.19274426  0.56730413  0.55345614     0.19200
C1430       C  0.18092035  0.58307574  0.55010532    -0.18900
C1431       C  0.17863835  0.59710475  0.56409032    -0.11200
C1432       C  0.18771068  0.59541505  0.58209604     0.21400
C1433       C  0.20058586  0.58030673  0.58501692    -0.20500
C1434       C  0.20308633  0.56630308  0.57081923    -0.11400
C1435       C  0.18275704  0.60834055  0.59834367    -0.15500
C1436       C  0.16500434  0.61568365  0.59986082    -0.29400
C1437       C  0.19200829  0.55142047  0.53938931    -0.03700
C1438       C  0.20593868  0.53847052  0.53657470    -0.40200
H1439       H  0.17297210  0.58429528  0.53675962     0.12600
H1440       H  0.16930487  0.60898591  0.56090425     0.12200
H1441       H  0.20791304  0.57877840  0.59866801     0.11600
H1442       H  0.21221165  0.55423535  0.57389777     0.11900
H1443       H  0.19297127  0.61012750  0.61003127     0.14600
H1444       H  0.15440068  0.61227731  0.58892562     0.13400
H1445       H  0.17912134  0.55053912  0.53055084     0.11100
H1446       H  0.21962388  0.53965290  0.54399019     0.13100
C1447       C  0.19005093  0.67984457  0.67359535     0.19200
C1448       C  0.20767220  0.68862602  0.66939761    -0.18900
C1449       C  0.21759973  0.69927494  0.68337709    -0.11200
C1450       C  0.20997490  0.70151282  0.70190909     0.21400
C1451       C  0.19235166  0.69268668  0.70604712    -0.20500
C1452       C  0.18249697  0.68204013  0.69213415    -0.11400
C1453       C  0.21886412  0.71390001  0.71701907    -0.15500
C1454       C  0.23621004  0.72256010  0.71610169    -0.29400
C1455       C  0.17945302  0.66937848  0.65813023    -0.03700
C1456       C  0.16665931  0.65538915  0.66160801    -0.40200
H1457       H  0.21373196  0.68733955  0.65517938     0.12600
H1458       H  0.23092736  0.70603093  0.67939182     0.12200
H1459       H  0.18592545  0.69434418  0.72006814     0.11600
H1460       H  0.16869159  0.67607994  0.69583751     0.11900
H1461       H  0.21026485  0.71613831  0.72975111     0.14600
H1462       H  0.24590404  0.71955925  0.70439250     0.13400
H1463       H  0.18252051  0.67304018  0.64332227     0.11100
H1464       H  0.16419755  0.65086805  0.67626129     0.13100
C1465       C  0.17497382  0.56093955  0.43675392     0.19200
C1466       C  0.15725826  0.57021750  0.43473643    -0.18900
C1467       C  0.15470963  0.58446521  0.42100717    -0.11200
C1468       C  0.16986525  0.58962508  0.40881206     0.21400
C1469       C  0.18757469  0.58041988  0.41086110    -0.20500
C1470       C  0.19011185  0.56614428  0.42453324    -0.11400
C1471       C  0.16806474  0.60486634  0.39420620    -0.15500
C1472       C  0.15119741  0.61038994  0.38659551    -0.29400
C1473       C  0.17682386  0.54580351  0.45153204    -0.03700
C1474       C  0.19361195  0.53819249  0.45724544    -0.40200
H1475       H  0.14535800  0.56655102  0.44395739     0.12600
H1476       H  0.14099107  0.59158738  0.42032942     0.12200
H1477       H  0.19948202  0.58415489  0.40167629     0.11600
H1478       H  0.20389478  0.55918977  0.42515862     0.11900
H1479       H  0.18128189  0.61138256  0.38939303     0.14600
H1480       H  0.13803695  0.60348081  0.39102019     0.13400
H1481       H  0.16368652  0.54088323  0.45825198     0.11100
H1482       H  0.20710279  0.54300955  0.45134133     0.13100
C1483       C  0.21803076  0.70522108  0.29917033     0.19200
C1484       C  0.22241212  0.69110120  0.31264820    -0.18900
C1485       C  0.20786893  0.68170272  0.32258433    -0.11200
C1486       C  0.18841692  0.68598076  0.31898239     0.21400
C1487       C  0.18410481  0.70051431  0.30582619    -0.20500
C1488       C  0.19871511  0.71005158  0.29601252    -0.11400
C1489       C  0.17221405  0.67564076  0.32831145    -0.15500
C1490       C  0.17438092  0.66049757  0.33993689    -0.29400
C1491       C  0.23370961  0.71277799  0.28706110    -0.03700
C1492       C  0.23317251  0.72965238  0.27795327    -0.40200
H1493       H  0.23719083  0.68707136  0.31526492     0.12600
H1494       H  0.21218610  0.67100552  0.33279263     0.12200
H1495       H  0.16932375  0.70420625  0.30276606     0.11600
H1496       H  0.19478536  0.72055840  0.28537801     0.11900
H1497       H  0.15773149  0.68062602  0.32542842     0.14600
H1498       H  0.18850786  0.65494703  0.34306709     0.13400
H1499       H  0.24613682  0.70366565  0.28515963     0.11100
H1500       H  0.22187009  0.73980999  0.28096442     0.13100
C1501       C  0.18485220  0.43626259  0.56282732     0.19200
C1502       C  0.17053427  0.43672684  0.57685994    -0.18900
C1503       C  0.16879774  0.42204699  0.59017396    -0.11200
C1504       C  0.18117212  0.40625653  0.58957075     0.21400
C1505       C  0.19593705  0.40603833  0.57595399    -0.20500
C1506       C  0.19772982  0.42082894  0.56260585    -0.11400
C1507       C  0.17882785  0.38987363  0.60287677    -0.15500
C1508       C  0.16156065  0.38498785  0.60992787    -0.29400
C1509       C  0.18500502  0.45167231  0.54825152    -0.03700
C1510       C  0.20004355  0.45600951  0.53706016    -0.40200
H1511       H  0.16053899  0.44850226  0.57748404     0.12600
H1512       H  0.15773658  0.42318638  0.60093353     0.12200
H1513       H  0.20575474  0.39412476  0.57528540     0.11600
H1514       H  0.20879888  0.41976632  0.55186047     0.11900
H1515       H  0.19134228  0.38129523  0.60612551     0.14600
H1516       H  0.14899877  0.39293773  0.60545188     0.13400
H1517       H  0.17202152  0.46012478  0.54690466     0.11100
H1518       H  0.21354020  0.44849880  0.53856103     0.13100
C1519       C  0.18701966  0.30639427  0.67992011     0.19200
C1520       C  0.18253966  0.30217286  0.69901722    -0.18900
C1521       C  0.19540849  0.29214999  0.71062507    -0.11200
C1522       C  0.21297824  0.28557060  0.70322858     0.21400
C1523       C  0.21745370  0.28981911  0.68405891    -0.20500
C1524       C  0.20463774  0.30012876  0.67249951    -0.11400
C1525       C  0.22697358  0.27449642  0.71509194    -0.15500
C1526       C  0.22194234  0.26515008  0.73115620    -0.29400
C1527       C  0.17283670  0.31722630  0.66830233    -0.03700
C1528       C  0.17770213  0.32970658  0.65451895    -0.40200
H1529       H  0.16912976  0.30698530  0.70511835     0.12600
H1530       H  0.19152953  0.28993473  0.72543420     0.12200
H1531       H  0.23085008  0.28499941  0.67794901     0.11600
H1532       H  0.20839583  0.30288413  0.65772187     0.11900
H1533       H  0.24155147  0.27331779  0.70987680     0.14600
H1534       H  0.20706335  0.26513874  0.73557047     0.13400
H1535       H  0.15784997  0.31623316  0.67242478     0.11100
H1536       H  0.19269032  0.33171026  0.65087124     0.13100
C1537       C  0.10832847  0.31019354  0.41210581     0.19200
C1538       C  0.09298306  0.29761487  0.40862943    -0.18900
C1539       C  0.07924873  0.29415596  0.42281996    -0.11200
C1540       C  0.08068214  0.30323019  0.44079336     0.21400
C1541       C  0.09642609  0.31513434  0.44453290    -0.20500
C1542       C  0.11025565  0.31837125  0.43050002    -0.11400
C1543       C  0.06530810  0.30195193  0.45534897    -0.15500
C1544       C  0.05411397  0.28654790  0.45777590    -0.29400
C1545       C  0.12141696  0.31530156  0.39605918    -0.03700
C1546       C  0.13046963  0.33224469  0.39539953    -0.40200
H1547       H  0.09118826  0.29104634  0.39464933     0.12600
H1548       H  0.06710998  0.28510515  0.41939495     0.12200
H1549       H  0.09791641  0.32214774  0.45833280     0.11600
H1550       H  0.12226686  0.32749763  0.43410348     0.11900
H1551       H  0.06342721  0.31415718  0.46478448     0.14600
H1552       H  0.05665261  0.27366548  0.44953004     0.13400
H1553       H  0.12196286  0.30586827  0.38370436     0.11100
H1554       H  0.12850077  0.34237101  0.40698218     0.13100
C1555       C  0.10162169  0.31634600  0.58799482     0.19200
C1556       C  0.09569625  0.29749777  0.58447414    -0.18900
C1557       C  0.08127920  0.29345393  0.57085486    -0.11200
C1558       C  0.07264195  0.30826642  0.56030913     0.21400
C1559       C  0.07889599  0.32700809  0.56363317    -0.20500
C1560       C  0.09323132  0.33100941  0.57711415    -0.11400
C1561       C  0.05714318  0.30532959  0.54571076    -0.15500
C1562       C  0.05083575  0.28842114  0.53886680    -0.29400
C1563       C  0.11695076  0.32038102  0.60253910    -0.03700
C1564       C  0.11844658  0.33737407  0.61149866    -0.40200
H1565       H  0.10208334  0.28589229  0.59244976     0.12600
H1566       H  0.07693700  0.27880359  0.56882796     0.12200
H1567       H  0.07274901  0.33871443  0.55560724     0.11600
H1568       H  0.09789197  0.34563381  0.57864266     0.11900
H1569       H  0.05080564  0.31818421  0.53980073     0.14600
H1570       H  0.05684108  0.27514934  0.54399949     0.13400
H1571       H  0.12715056  0.30917826  0.60577204     0.11100
H1572       H  0.10775139  0.34821249  0.60870174     0.13100
C1573       C  0.06664817  0.42957744  0.33742303     0.19200
C1574       C  0.06765167  0.41654596  0.35261555    -0.18900
C1575       C  0.08173156  0.40240303  0.35301523    -0.11200
C1576       C  0.09541298  0.40110304  0.33829140     0.21400
C1577       C  0.09421894  0.41387740  0.32288862    -0.20500
C1578       C  0.08010881  0.42805730  0.32248166    -0.11400
C1579       C  0.11100388  0.38661031  0.33860808    -0.15500
C1580       C  0.11815260  0.37954320  0.35509392    -0.29400
C1581       C  0.05177792  0.44480129  0.33814160    -0.03700
C1582       C  0.04589168  0.45483258  0.32277872    -0.40200
H1583       H  0.05743593  0.41727274  0.36424780     0.12600
H1584       H  0.08170325  0.39243455  0.36481237     0.12200
H1585       H  0.10452222  0.41316052  0.31133519     0.11600
H1586       H  0.08017392  0.43799899  0.31067987     0.11900
H1587       H  0.11737966  0.38255208  0.32503856     0.14600
H1588       H  0.11271297  0.38482360  0.36864586     0.13400
H1589       H  0.04500356  0.44751024  0.35188686     0.11100
H1590       H  0.05167077  0.45183534  0.30868716     0.13100
C1591       C  0.06280237  0.56592254  0.32365979     0.19200
C1592       C  0.07697862  0.57268484  0.31115427    -0.18900
C1593       C  0.08858033  0.58828555  0.31636104    -0.11200
C1594       C  0.08593680  0.59757751  0.33412394     0.21400
C1595       C  0.07113444  0.59127728  0.34610680    -0.20500
C1596       C  0.05971865  0.57573573  0.34098147    -0.11400
C1597       C  0.09842275  0.61329372  0.34145499    -0.15500
C1598       C  0.11521882  0.61880398  0.33377337    -0.29400
C1599       C  0.05108690  0.54884843  0.31853207    -0.03700
C1600       C  0.04473810  0.53690853  0.33216986    -0.40200
H1601       H  0.07938041  0.56560365  0.29755389     0.12600
H1602       H  0.09955385  0.59282784  0.30649056     0.12200
H1603       H  0.06855678  0.59822168  0.35975399     0.11600
H1604       H  0.04839847  0.57148875  0.35063842     0.11900
H1605       H  0.09387874  0.61998556  0.35470584     0.14600
H1606       H  0.11988094  0.61311906  0.32010912     0.13400
H1607       H  0.04760931  0.54615176  0.30355278     0.11100
H1608       H  0.04910265  0.53923560  0.34697964     0.13100
C1609       C  0.09676661  0.58280808  0.66030414     0.19200
C1610       C  0.09692958  0.57008501  0.67577371    -0.18900
C1611       C  0.08286659  0.55589912  0.67729826    -0.11200
C1612       C  0.06808991  0.55435437  0.66347275     0.21400
C1613       C  0.06789321  0.56716927  0.64808736    -0.20500
C1614       C  0.08191623  0.58132426  0.64657691    -0.11400
C1615       C  0.05281901  0.53950638  0.66432075    -0.15500
C1616       C  0.04795497  0.53032714  0.68048825    -0.29400
C1617       C  0.11200587  0.59765215  0.65898009    -0.03700
C1618       C  0.11756467  0.60485121  0.64203383    -0.40200
H1619       H  0.10816146  0.57092908  0.68655133     0.12600
H1620       H  0.08390259  0.54604264  0.68913347     0.12200
H1621       H  0.05667934  0.56638198  0.63728327     0.11600
H1622       H  0.08083065  0.59125277  0.63479136     0.11900
H1623       H  0.04481365  0.53648843  0.65122517     0.14600
H1624       H  0.05513786  0.53361703  0.69393495     0.13400
H1625       H  0.11899447  0.60228455  0.67213706     0.11100
H1626       H  0.11119388  0.59924904  0.62895080     0.13100
C1627       C  0.09424315  0.39658587  0.66598525     0.19200
C1628       C  0.07526035  0.39744551  0.65927118    -0.18900
C1629       C  0.06272935  0.41134944  0.66599860    -0.11200
C1630       C  0.06891325  0.42490443  0.67956728     0.21400
C1631       C  0.08757986  0.42354903  0.68709143    -0.20500
C1632       C  0.10024557  0.40960816  0.68025739    -0.11400
C1633       C  0.05613876  0.44078854  0.68540128    -0.15500
C1634       C  0.04458099  0.44922120  0.67248292    -0.29400
C1635       C  0.10739479  0.38291282  0.65644736    -0.03700
C1636       C  0.12487869  0.37796621  0.66295632    -0.40200
H1637       H  0.07018064  0.38754144  0.64841539     0.12600
H1638       H  0.04822366  0.41162330  0.66036817     0.12200
H1639       H  0.09260491  0.43377106  0.69766048     0.11600
H1640       H  0.11480736  0.40960032  0.68567054     0.11900
H1641       H  0.05685758  0.44612168  0.70003586     0.14600
H1642       H  0.04513720  0.44473695  0.65756092     0.13400
H1643       H  0.10219607  0.37645709  0.64322273     0.11100
H1644       H  0.12990215  0.38272254  0.67692774     0.13100
C1645       C  0.06363262  0.68530043  0.56826866     0.19200
C1646       C  0.06220284  0.67191986  0.58307054    -0.18900
C1647       C  0.07706539  0.66963854  0.59627204    -0.11200
C1648       C  0.09393245  0.68051539  0.59485249     0.21400
C1649       C  0.09491046  0.69491559  0.58096024    -0.20500
C1650       C  0.07988740  0.69725649  0.56763644    -0.11400
C1651       C  0.11098952  0.67548781  0.60667376    -0.15500
C1652       C  0.11559259  0.65702837  0.60880360    -0.29400
C1653       C  0.04871844  0.68467765  0.55298519    -0.03700
C1654       C  0.04513946  0.69850717  0.54014882    -0.40200
H1655       H  0.04978186  0.66267576  0.58404033     0.12600
H1656       H  0.07568105  0.65878927  0.60719436     0.12200
H1657       H  0.10773214  0.70354558  0.57970016     0.11600
H1658       H  0.08153377  0.70766090  0.55635538     0.11900
H1659       H  0.12006377  0.68664665  0.61260175     0.14600
H1660       H  0.10700100  0.64646487  0.60120961     0.13400
H1661       H  0.03997823  0.67183731  0.55236475     0.11100
H1662       H  0.05258557  0.71206962  0.54090557     0.13100
C1663       C  0.06764558  0.67400796  0.43843240     0.19200
C1664       C  0.08748111  0.67120937  0.44012938    -0.18900
C1665       C  0.09846365  0.66722285  0.42388395    -0.11200
C1666       C  0.08962375  0.66537628  0.40578302     0.21400
C1667       C  0.06976406  0.66806964  0.40413279    -0.20500
C1668       C  0.05888291  0.67265647  0.42027916    -0.11400
C1669       C  0.10053562  0.65861653  0.38896887    -0.15500
C1670       C  0.11855414  0.66430368  0.38542808    -0.29400
C1671       C  0.05595120  0.67642915  0.45586344    -0.03700
C1672       C  0.04197887  0.68949281  0.45704391    -0.40200
H1673       H  0.09441545  0.67189251  0.45406424     0.12600
H1674       H  0.11369533  0.66470098  0.42561414     0.12200
H1675       H  0.06264870  0.66636994  0.39037333     0.11600
H1676       H  0.04350710  0.67431050  0.41873733     0.11900
H1677       H  0.09355125  0.64852778  0.37935119     0.14600
H1678       H  0.12495895  0.67568966  0.39391190     0.13400
H1679       H  0.05888526  0.66716772  0.46799246     0.11100
H1680       H  0.04000920  0.69978060  0.44559404     0.13100
C1681       C  0.91858778  0.66466245  0.59573655     0.19200
C1682       C  0.91746840  0.68074671  0.58383618    -0.18900
C1683       C  0.93148890  0.68421126  0.56994721    -0.11200
C1684       C  0.94703581  0.67165531  0.56780360     0.21400
C1685       C  0.94845304  0.65594759  0.58010922    -0.20500
C1686       C  0.93454844  0.65255556  0.59402253    -0.11400
C1687       C  0.96143726  0.67354137  0.55229028    -0.15500
C1688       C  0.96506468  0.68964603  0.54250168    -0.29400
C1689       C  0.90279624  0.66088850  0.60953666    -0.03700
C1690       C  0.89914056  0.64349021  0.61682267    -0.40200
H1691       H  0.90541784  0.69039289  0.58493078     0.12600
H1692       H  0.92970402  0.69632568  0.56057596     0.12200
H1693       H  0.96035574  0.64613338  0.57887304     0.11600
H1694       H  0.93647303  0.64043417  0.60334527     0.11900
H1695       H  0.96971747  0.66087653  0.54891546     0.14600
H1696       H  0.95785727  0.70284492  0.54608156     0.13400
H1697       H  0.89323676  0.67261280  0.61274396     0.11100
H1698       H  0.90787349  0.63146906  0.61259653     0.13100
C1699       C  0.94024235  0.55153129  0.67970818     0.19200
C1700       C  0.92034953  0.54951015  0.67723757    -0.18900
C1701       C  0.90886611  0.56537450  0.67329609    -0.11200
C1702       C  0.91722588  0.58346497  0.67112387     0.21400
C1703       C  0.93705063  0.58556547  0.67415225    -0.20500
C1704       C  0.94844169  0.56978952  0.67871090    -0.11400
C1705       C  0.90613975  0.59951762  0.66289021    -0.15500
C1706       C  0.88765556  0.60295919  0.66700957    -0.29400
C1707       C  0.95250015  0.53432655  0.68006900    -0.03700
C1708       C  0.96791040  0.53243131  0.69159386    -0.40200
H1709       H  0.91379847  0.53551651  0.67765878     0.12600
H1710       H  0.89369201  0.56325955  0.67063074     0.12200
H1711       H  0.94382788  0.59932822  0.67229370     0.11600
H1712       H  0.96381089  0.57165672  0.68012851     0.11900
H1713       H  0.91341433  0.60864846  0.65265940     0.14600
H1714       H  0.88055435  0.59518704  0.67840049     0.13400
H1715       H  0.94894577  0.52296388  0.67002149     0.11100
H1716       H  0.97081806  0.54288975  0.70275693     0.13100
C1717       C  0.82190194  0.55548444  0.56242417     0.19200
C1718       C  0.83937276  0.56546885  0.56275234    -0.18900
C1719       C  0.84291648  0.57966961  0.57637771    -0.11200
C1720       C  0.82912509  0.58414806  0.59031969     0.21400
C1721       C  0.81131622  0.57473107  0.58959210    -0.20500
C1722       C  0.80773418  0.56044128  0.57586655    -0.11400
C1723       C  0.83304923  0.59857219  0.60562808    -0.15500
C1724       C  0.85093704  0.60190832  0.61235019    -0.29400
C1725       C  0.81982825  0.53951919  0.54840903    -0.03700
C1726       C  0.80336427  0.53038931  0.54380295    -0.40200
H1727       H  0.85048120  0.56215877  0.55246555     0.12600
H1728       H  0.85649833  0.58712880  0.57587027     0.12200
H1729       H  0.80034666  0.57806949  0.60000881     0.11600
H1730       H  0.79412126  0.55305762  0.57622357     0.11900
H1731       H  0.82092756  0.60594927  0.61186328     0.14600
H1732       H  0.86271252  0.59346489  0.60686379     0.13400
H1733       H  0.83290441  0.53508853  0.54125200     0.11100
H1734       H  0.78979919  0.53473582  0.54993098     0.13100
C1735       C  0.79081593  0.69741617  0.69482689     0.19200
C1736       C  0.79766093  0.69920552  0.67602242    -0.18900
C1737       C  0.80954090  0.68529301  0.66806213    -0.11200
C1738       C  0.81475556  0.66911225  0.67870995     0.21400
C1739       C  0.80762492  0.66706818  0.69737502    -0.20500
C1740       C  0.79585792  0.68109848  0.70543196    -0.11400
C1741       C  0.82714835  0.65400265  0.67040864    -0.15500
C1742       C  0.84143720  0.65804557  0.65818134    -0.29400
C1743       C  0.77768159  0.71235169  0.70234794    -0.03700
C1744       C  0.77468475  0.71552660  0.72116695    -0.40200
H1745       H  0.79375893  0.71142919  0.66740802     0.12600
H1746       H  0.81428803  0.68704788  0.65341605     0.12200
H1747       H  0.81123643  0.65461023  0.70576779     0.11600
H1748       H  0.79040744  0.67882501  0.71973463     0.11900
H1749       H  0.82507921  0.63939375  0.67506404     0.14600
H1750       H  0.84425346  0.67282888  0.65460464     0.13400
H1751       H  0.77061954  0.72128246  0.69181635     0.11100
H1752       H  0.78261286  0.70736214  0.73172616     0.13100
C1753       C  0.94572654  0.65985499  0.43709177     0.19200
C1754       C  0.94744351  0.64268068  0.42694738    -0.18900
C1755       C  0.93393016  0.63752584  0.41302470    -0.11200
C1756       C  0.91820103  0.64932071  0.40893276     0.21400
C1757       C  0.91655186  0.66671586  0.41890692    -0.20500
C1758       C  0.93016423  0.67191400  0.43284789    -0.11400
C1759       C  0.90363393  0.64219319  0.39492685    -0.15500
C1760       C  0.88732998  0.65124890  0.38994847    -0.29400
C1761       C  0.96005362  0.66405261  0.45243509    -0.03700
C1762       C  0.96298124  0.68133878  0.46033352    -0.40200
H1763       H  0.95923397  0.63308410  0.42991883     0.12600
H1764       H  0.93561741  0.62402954  0.40565690     0.12200
H1765       H  0.90469344  0.67626467  0.41639176     0.11600
H1766       H  0.92805663  0.68510395  0.44056795     0.11900
H1767       H  0.90653735  0.62837413  0.38869259     0.14600
H1768       H  0.88445754  0.66552612  0.39506242     0.13400
H1769       H  0.96905097  0.65230339  0.45711349     0.11100
H1770       H  0.95496330  0.69362739  0.45545480     0.13100
C1771       C  0.82309666  0.54831209  0.44195027     0.19200
C1772       C  0.84114051  0.55158070  0.43382018    -0.18900
C1773       C  0.84361851  0.56556982  0.41990867    -0.11200
C1774       C  0.82808694  0.57695420  0.41401402     0.21400
C1775       C  0.80993680  0.57351918  0.42190085    -0.20500
C1776       C  0.80743195  0.55943042  0.43582446    -0.11400
C1777       C  0.83027797  0.59223501  0.39948528    -0.15500
C1778       C  0.84721084  0.60073242  0.39596875    -0.29400
C1779       C  0.82162272  0.53353490  0.45705669    -0.03700
C1780       C  0.80505767  0.52598936  0.46326773    -0.40200
H1781       H  0.85341695  0.54316034  0.43816681     0.12600
H1782       H  0.85769439  0.56713061  0.41368204     0.12200
H1783       H  0.79771566  0.58199025  0.41750993     0.11600
H1784       H  0.79332763  0.55766056  0.44191607     0.11900
H1785       H  0.81752169  0.59666787  0.39172897     0.14600
H1786       H  0.85985824  0.59665385  0.40405911     0.13400
H1787       H  0.83500707  0.52838148  0.46319547     0.11100
H1788       H  0.79140174  0.53034155  0.45722823     0.13100
C1789       C  0.93890355  0.55515664  0.34010371     0.19200
C1790       C  0.91910697  0.55211476  0.34186189    -0.18900
C1791       C  0.90652045  0.56757915  0.34309532    -0.11200
C1792       C  0.91366119  0.58632474  0.34318809     0.21400
C1793       C  0.93347344  0.58931796  0.34139446    -0.20500
C1794       C  0.94597511  0.57388561  0.33955229    -0.11400
C1795       C  0.90120529  0.60262549  0.34816554    -0.15500
C1796       C  0.88271060  0.60404199  0.34282545    -0.29400
C1797       C  0.95220606  0.53876600  0.33990873    -0.03700
C1798       C  0.96588228  0.53717980  0.32655203    -0.40200
H1799       H  0.91342384  0.53776214  0.34245796     0.12600
H1800       H  0.89136183  0.56485038  0.34501832     0.12200
H1801       H  0.93931184  0.60362399  0.34183807     0.11600
H1802       H  0.96124414  0.57653912  0.33850009     0.11900
H1803       H  0.90734549  0.61354087  0.35742889     0.14600
H1804       H  0.87661605  0.59433147  0.33226386     0.13400
H1805       H  0.95027679  0.52754078  0.35042253     0.11100
H1806       H  0.96657575  0.54756387  0.31504504     0.13100
C1807       C  0.78977149  0.70125899  0.30743976     0.19200
C1808       C  0.78406051  0.68390973  0.31559007    -0.18900
C1809       C  0.79739752  0.67216838  0.32485391    -0.11200
C1810       C  0.81678615  0.67770057  0.32640427     0.21400
C1811       C  0.82236190  0.69528346  0.31868950    -0.20500
C1812       C  0.80903603  0.70700866  0.30944608    -0.11400
C1813       C  0.83174064  0.66545867  0.33541622    -0.15500
C1814       C  0.82794088  0.65143676  0.34796135    -0.29400
C1815       C  0.77538694  0.71268205  0.29659668    -0.03700
C1816       C  0.78015562  0.72475485  0.28240960    -0.40200
H1817       H  0.76931195  0.67915265  0.31430088     0.12600
H1818       H  0.79249049  0.65860264  0.33024142     0.12200
H1819       H  0.83713842  0.69999034  0.31981784     0.11600
H1820       H  0.81392795  0.72055280  0.30397180     0.11900
H1821       H  0.84666080  0.66860428  0.33222265     0.14600
H1822       H  0.81326469  0.64851522  0.35211262     0.13400
H1823       H  0.76027379  0.70997039  0.29924677     0.11100
H1824       H  0.79512765  0.72694925  0.27887940     0.13100
C1825       C  0.82531108  0.42060221  0.44763363     0.19200
C1826       C  0.84341015  0.41192975  0.44640806    -0.18900
C1827       C  0.84719311  0.39817112  0.43240764    -0.11200
C1828       C  0.83296141  0.39282286  0.41903768     0.21400
C1829       C  0.81464917  0.40098251  0.42062533    -0.20500
C1830       C  0.81084625  0.41480187  0.43466678    -0.11400
C1831       C  0.83669710  0.37879996  0.40337727    -0.15500
C1832       C  0.85434621  0.37565067  0.39618012    -0.29400
C1833       C  0.82271185  0.43604422  0.46215371    -0.03700
C1834       C  0.80590392  0.44437218  0.46675169    -0.40200
H1835       H  0.85479357  0.41591105  0.45629234     0.12600
H1836       H  0.86126509  0.39172755  0.43224118     0.12200
H1837       H  0.80335182  0.39698144  0.41065453     0.11600
H1838       H  0.79672545  0.42109436  0.43493772     0.11900
H1839       H  0.82437086  0.37162203  0.39712313     0.14600
H1840       H  0.86645201  0.38364726  0.40182549     0.13400
H1841       H  0.83561529  0.44088369  0.46954312     0.11100
H1842       H  0.79254317  0.43971978  0.46022909     0.13100
C1843       C  0.95254271  0.30267805  0.42843897     0.19200
C1844       C  0.95367381  0.31744032  0.41497177    -0.18900
C1845       C  0.93870028  0.32070959  0.40197961    -0.11200
C1846       C  0.92191796  0.30951504  0.40238680     0.21400
C1847       C  0.92112604  0.29416961  0.41525209    -0.20500
C1848       C  0.93623061  0.29080460  0.42822748    -0.11400
C1849       C  0.90486544  0.31407008  0.39013437    -0.15500
C1850       C  0.90082962  0.33211436  0.38501375    -0.29400
C1851       C  0.96790576  0.30130694  0.44333059    -0.03700
C1852       C  0.97204609  0.28551925  0.45349428    -0.40200
H1853       H  0.96611869  0.32670298  0.41468102     0.12600
H1854       H  0.94026970  0.33218245  0.39178132     0.12200
H1855       H  0.90845859  0.28523505  0.41579583     0.11600
H1856       H  0.93469162  0.27944562  0.43855184     0.11900
H1857       H  0.89482070  0.30273473  0.38663905     0.14600
H1858       H  0.91025468  0.34343780  0.38995710     0.13400
H1859       H  0.97635009  0.31409219  0.44597747     0.11100
H1860       H  0.96467233  0.27221443  0.45047545     0.13100
C1861       C  0.90906194  0.40971286  0.34590668     0.19200
C1862       C  0.91294553  0.42431309  0.35914067    -0.18900
C1863       C  0.92738014  0.43757015  0.35579627    -0.11200
C1864       C  0.93828895  0.43685866  0.33899052     0.21400
C1865       C  0.93413339  0.42266822  0.32525039    -0.20500
C1866       C  0.91963752  0.40912629  0.32870935    -0.11400
C1867       C  0.95455816  0.45046650  0.33750454    -0.15500
C1868       C  0.96350736  0.45583950  0.32128164    -0.29400
C1869       C  0.89484501  0.39501705  0.35177605    -0.03700
C1870       C  0.88998345  0.37920049  0.34192265    -0.40200
H1871       H  0.90513261  0.42518426  0.37250744     0.12600
H1872       H  0.93025109  0.44830933  0.36664563     0.12200
H1873       H  0.94245000  0.42156638  0.31224283     0.11600
H1874       H  0.91716137  0.39808196  0.31814467     0.11900
H1875       H  0.95905085  0.45705578  0.35094256     0.14600
H1876       H  0.95899545  0.45034374  0.30740354     0.13400
H1877       H  0.88838546  0.39709493  0.36577415     0.11100
H1878       H  0.89481767  0.37689098  0.32735305     0.13100
C1879       C  0.79814666  0.29228987  0.29231375     0.19200
C1880       C  0.79557437  0.30982765  0.30165470    -0.18900
C1881       C  0.80983613  0.31738702  0.31366405    -0.11200
C1882       C  0.82722629  0.30764432  0.31659870     0.21400
C1883       C  0.83003939  0.29027610  0.30697185    -0.20500
C1884       C  0.81563071  0.28257698  0.29505468    -0.11400
C1885       C  0.84293412  0.31604436  0.32862418    -0.15500
C1886       C  0.83931874  0.32735505  0.34382762    -0.29400
C1887       C  0.78253243  0.28523607  0.27931139    -0.03700
C1888       C  0.78018801  0.26687216  0.27402606    -0.40200
H1889       H  0.78243798  0.31780163  0.29960205     0.12600
H1890       H  0.80737827  0.33115143  0.32020975     0.12200
H1891       H  0.84343047  0.28265469  0.30867134     0.11600
H1892       H  0.81846464  0.26930774  0.28770359     0.11900
H1893       H  0.85771640  0.31325003  0.32466899     0.14600
H1894       H  0.82453825  0.32917494  0.34830233     0.13400
H1895       H  0.77204019  0.29565057  0.27467093     0.11100
H1896       H  0.78988927  0.25617318  0.27962859     0.13100
C1897       C  0.94851778  0.42200845  0.67127888     0.19200
C1898       C  0.94978583  0.40876926  0.65625318    -0.18900
C1899       C  0.93684547  0.39364493  0.65483464    -0.11200
C1900       C  0.92190374  0.39160954  0.66818868     0.21400
C1901       C  0.92115539  0.40427859  0.68379368    -0.20500
C1902       C  0.93428995  0.41941352  0.68532056    -0.11400
C1903       C  0.90652259  0.37702257  0.66540347    -0.15500
C1904       C  0.90079195  0.37202974  0.64762073    -0.29400
C1905       C  0.96169640  0.43870515  0.67100668    -0.03700
C1906       C  0.96652939  0.44915421  0.68651568    -0.40200
H1907       H  0.96074879  0.41024411  0.64540043     0.12600
H1908       H  0.93845325  0.38370320  0.64306107     0.12200
H1909       H  0.90991294  0.40294031  0.69436462     0.11600
H1910       H  0.93274594  0.42941249  0.69703914     0.11900
H1911       H  0.89906535  0.37150324  0.67783462     0.14600
H1912       H  0.90747593  0.37897554  0.63548428     0.13400
H1913       H  0.96843804  0.44204319  0.65739304     0.11100
H1914       H  0.96112349  0.44542978  0.70057795     0.13100
C1915       C  0.82597655  0.39895324  0.59813711     0.19200
C1916       C  0.80999144  0.39870491  0.58585696    -0.18900
C1917       C  0.80664897  0.41392489  0.57333735    -0.11200
C1918       C  0.81916729  0.42972141  0.57320311     0.21400
C1919       C  0.83436605  0.43040564  0.58642402    -0.20500
C1920       C  0.83766759  0.41527670  0.59885901    -0.11400
C1921       C  0.81815875  0.44485576  0.55846890    -0.15500
C1922       C  0.80247369  0.44881152  0.54797028    -0.29400
C1923       C  0.83130764  0.38170440  0.60909438    -0.03700
C1924       C  0.84980294  0.37647002  0.61012422    -0.40200
H1925       H  0.80075008  0.38629818  0.58518431     0.12600
H1926       H  0.79490894  0.41275536  0.56319519     0.12200
H1927       H  0.84409382  0.44246003  0.58674356     0.11600
H1928       H  0.84976503  0.41609327  0.60865229     0.11900
H1929       H  0.83113991  0.45311064  0.55607314     0.14600
H1930       H  0.78894957  0.44168226  0.55070510     0.13400
H1931       H  0.82010958  0.37303299  0.61539240     0.11100
H1932       H  0.86037284  0.38483422  0.60242870     0.13100
C1933       C  0.94166848  0.30308265  0.55167306     0.19200
C1934       C  0.92883980  0.31835547  0.55012582    -0.18900
C1935       C  0.91442133  0.32099469  0.56366867    -0.11200
C1936       C  0.91272326  0.30859257  0.57939822     0.21400
C1937       C  0.92495494  0.29278547  0.58049723    -0.20500
C1938       C  0.93938785  0.29007695  0.56684542    -0.11400
C1939       C  0.89893399  0.31235045  0.59519224    -0.15500
C1940       C  0.89406682  0.33023698  0.60009468    -0.29400
C1941       C  0.95777771  0.30206134  0.53782992    -0.03700
C1942       C  0.96808577  0.28629142  0.53423438    -0.40200
H1943       H  0.93011829  0.32845949  0.53848463     0.12600
H1944       H  0.90476214  0.33289798  0.56184416     0.12200
H1945       H  0.92384911  0.28294688  0.59237867     0.11600
H1946       H  0.94911071  0.27824922  0.56871392     0.11900
H1947       H  0.89398857  0.30042189  0.60370241     0.14600
H1948       H  0.90029670  0.34203142  0.59226942     0.13400
H1949       H  0.96109202  0.31497026  0.52992926     0.11100
H1950       H  0.96454270  0.27288594  0.54104384     0.13100
C1951       C  0.82485773  0.31346688  0.68197581     0.19200
C1952       C  0.80706746  0.31947901  0.68920481    -0.18900
C1953       C  0.79607328  0.30751190  0.70096342    -0.11200
C1954       C  0.80279115  0.28926182  0.70587438     0.21400
C1955       C  0.82060861  0.28335474  0.69864643    -0.20500
C1956       C  0.83150627  0.29523790  0.68689563    -0.11400
C1957       C  0.79258687  0.27617268  0.71924932    -0.15500
C1958       C  0.77458020  0.27836737  0.72604934    -0.29400
C1959       C  0.83645252  0.32669306  0.66995413    -0.03700
C1960       C  0.84908364  0.32064557  0.65667770    -0.40200
H1961       H  0.80166972  0.33351860  0.68576222     0.12600
H1962       H  0.78261389  0.31280089  0.70641936     0.12200
H1963       H  0.82632004  0.26949670  0.70233871     0.11600
H1964       H  0.84536312  0.29024643  0.68215188     0.11900
H1965       H  0.80057060  0.26363037  0.72354770     0.14600
H1966       H  0.76554408  0.28983698  0.72093773     0.13400
H1967       H  0.83389651  0.34188604  0.67141410     0.11100
H1968       H  0.85088672  0.30548731  0.65425184     0.13100
C1969       C  0.57233063  0.93909766  0.67357842     0.19200
C1970       C  0.59042644  0.94198677  0.66533201    -0.18900
C1971       C  0.60247461  0.92653627  0.66151543    -0.11200
C1972       C  0.59633949  0.90788795  0.66536264     0.21400
C1973       C  0.57843398  0.90499511  0.67394032    -0.20500
C1974       C  0.56663127  0.92048373  0.67831272    -0.11400
C1975       C  0.60706219  0.89141825  0.65775557    -0.15500
C1976       C  0.62607486  0.88938746  0.66000040    -0.29400
C1977       C  0.55877208  0.95528205  0.67488701    -0.03700
C1978       C  0.54563394  0.95697041  0.68883341    -0.40200
H1979       H  0.59500426  0.95617611  0.66134152     0.12600
H1980       H  0.61605204  0.92904897  0.65447082     0.12200
H1981       H  0.57334290  0.89068629  0.67671042     0.11600
H1982       H  0.55258988  0.91777235  0.68428133     0.11900
H1983       H  0.59907092  0.88087865  0.64948175     0.14600
H1984       H  0.63408194  0.89885875  0.66945830     0.13400
H1985       H  0.55958694  0.96617339  0.66386723     0.11100
H1986       H  0.54566683  0.94716960  0.70085379     0.13100
C1987       C  0.68642553  0.93688216  0.55558656     0.19200
C1988       C  0.66942735  0.92616166  0.55508987    -0.18900
C1989       C  0.66608633  0.91194114  0.56856477    -0.11200
C1990       C  0.67961689  0.90827156  0.58310702     0.21400
C1991       C  0.69693116  0.91853421  0.58328072    -0.20500
C1992       C  0.70030869  0.93281025  0.56971965    -0.11400
C1993       C  0.67608422  0.89378436  0.59814392    -0.15500
C1994       C  0.65828669  0.88895622  0.60382276    -0.29400
C1995       C  0.68837950  0.95264935  0.54162560    -0.03700
C1996       C  0.70487610  0.96159414  0.53724270    -0.40200
H1997       H  0.65858065  0.92886397  0.54424159     0.12600
H1998       H  0.65291937  0.90382638  0.56743954     0.12200
H1999       H  0.70765966  0.91582716  0.59423855     0.11600
H2000       H  0.71350028  0.94087916  0.57074008     0.11900
H2001       H  0.68851062  0.88774554  0.60527963     0.14600
H2002       H  0.64596722  0.89620274  0.59773044     0.13400
H2003       H  0.67533526  0.95686134  0.53414638     0.11100
H2004       H  0.71841864  0.95727891  0.54358402     0.13100
C2005       C  0.55786720  0.81935360  0.56900674     0.19200
C2006       C  0.55760095  0.83416968  0.58254068    -0.18900
C2007       C  0.57291581  0.83691072  0.59526163    -0.11200
C2008       C  0.58920301  0.82511763  0.59447290     0.21400
C2009       C  0.58918182  0.80981573  0.58142475    -0.20500
C2010       C  0.57371299  0.80696530  0.56874516    -0.11400
C2011       C  0.60651512  0.82875991  0.60667216    -0.15500
C2012       C  0.61101389  0.84631748  0.61316485    -0.29400
C2013       C  0.54207879  0.81843488  0.55457730    -0.03700
C2014       C  0.53707317  0.80279605  0.54445008    -0.40200
H2015       H  0.54552549  0.84383620  0.58315394     0.12600
H2016       H  0.57190603  0.84836797  0.60560362     0.12200
H2017       H  0.60145854  0.80042853  0.58058841     0.11600
H2018       H  0.57458315  0.79556139  0.55832482     0.11900
H2019       H  0.61635712  0.81706090  0.60912758     0.14600
H2020       H  0.60183746  0.85818778  0.60940300     0.13400
H2021       H  0.53405613  0.83149309  0.55225291     0.11100
H2022       H  0.54407891  0.78926681  0.54708134     0.13100
C2023       C  0.71137528  0.78940341  0.69471954     0.19200
C2024       C  0.71543181  0.79604451  0.67621581    -0.18900
C2025       C  0.70199544  0.80698365  0.66609295    -0.11200
C2026       C  0.68428184  0.81178333  0.67446961     0.21400
C2027       C  0.68029850  0.80516090  0.69298035    -0.20500
C2028       C  0.69369501  0.79425777  0.70306687    -0.11400
C2029       C  0.66960394  0.82368786  0.66459407    -0.15500
C2030       C  0.67370520  0.83591945  0.65038901    -0.29400
C2031       C  0.72589839  0.77779354  0.70516083    -0.03700
C2032       C  0.72094795  0.76491779  0.71850064    -0.40200
H2033       H  0.72893884  0.79253857  0.66947257     0.12600
H2034       H  0.70549776  0.81137915  0.65168193     0.12200
H2035       H  0.66685814  0.80872231  0.69983104     0.11600
H2036       H  0.69025249  0.79000059  0.71754520     0.11900
H2037       H  0.65502117  0.82334016  0.67003260     0.14600
H2038       H  0.68830513  0.83715930  0.64525252     0.13400
H2039       H  0.74093984  0.77949379  0.70151455     0.11100
H2040       H  0.70585958  0.76242665  0.72133177     0.13100
C2041       C  0.43743559  0.94026971  0.67175621     0.19200
C2042       C  0.42476382  0.94119199  0.65611055    -0.18900
C2043       C  0.40945886  0.92845690  0.65447592    -0.11200
C2044       C  0.40665231  0.91415515  0.66829881     0.21400
C2045       C  0.41889510  0.91358787  0.68433019    -0.20500
C2046       C  0.43426285  0.92644421  0.68601673    -0.11400
C2047       C  0.39128956  0.89958186  0.66573515    -0.15500
C2048       C  0.38711266  0.89288021  0.64812148    -0.29400
C2049       C  0.45408212  0.95352438  0.67213339    -0.03700
C2050       C  0.46326063  0.95902950  0.68824276    -0.40200
H2051       H  0.42674315  0.95180571  0.64504082     0.12600
H2052       H  0.39987045  0.92976806  0.64227758     0.12200
H2053       H  0.41695867  0.90278328  0.69520725     0.11600
H2054       H  0.44390802  0.92510956  0.69814482     0.11900
H2055       H  0.38369191  0.89434395  0.67820409     0.14600
H2056       H  0.39572448  0.89777691  0.63616910     0.13400
H2057       H  0.45835818  0.95977460  0.65855482     0.11100
H2058       H  0.45854637  0.95396999  0.70213459     0.13100
C2059       C  0.42631912  0.81972204  0.55712756     0.19200
C2060       C  0.41207441  0.83331848  0.55359023    -0.18900
C2061       C  0.39722831  0.83617340  0.56658391    -0.11200
C2062       C  0.39655222  0.82588025  0.58386249     0.21400
C2063       C  0.41011709  0.81139952  0.58691305    -0.20500
C2064       C  0.42493855  0.80832967  0.57366711    -0.11400
C2065       C  0.38269472  0.83106593  0.59926561    -0.15500
C2066       C  0.37718450  0.84928495  0.60165565    -0.29400
C2067       C  0.44299115  0.81915903  0.54394955    -0.03700
C2068       C  0.45394954  0.80376232  0.54072880    -0.40200
H2069       H  0.41262997  0.84207155  0.54082837     0.12600
H2070       H  0.38654332  0.84682535  0.56322760     0.12200
H2071       H  0.40980646  0.80310912  0.59998648     0.11600
H2072       H  0.43575468  0.79776684  0.57688220     0.11900
H2073       H  0.37851409  0.82036131  0.60964850     0.14600
H2074       H  0.38300933  0.86005673  0.59219910     0.13400
H2075       H  0.44592832  0.83205545  0.53587532     0.11100
H2076       H  0.45061549  0.79028878  0.54754714     0.13100
C2077       C  0.31822804  0.92406362  0.59169536     0.19200
C2078       C  0.30192330  0.92427155  0.57981310    -0.18900
C2079       C  0.29947183  0.93862006  0.56608347    -0.11200
C2080       C  0.31321130  0.95325314  0.56421601     0.21400
C2081       C  0.32897938  0.95352015  0.57682130    -0.20500
C2082       C  0.33142465  0.93919865  0.59047274    -0.11400
C2083       C  0.31249048  0.96769996  0.54862484    -0.15500
C2084       C  0.29673063  0.97178875  0.53819005    -0.29400
C2085       C  0.32164212  0.90761898  0.60469306    -0.03700
C2086       C  0.33950718  0.90118640  0.60806834    -0.40200
H2087       H  0.29148452  0.91285478  0.58058515     0.12600
H2088       H  0.28722669  0.93767870  0.55654713     0.12200
H2089       H  0.33967255  0.96469377  0.57587859     0.11600
H2090       H  0.34380475  0.93988657  0.59989859     0.11900
H2091       H  0.32567846  0.97539959  0.54561959     0.14600
H2092       H  0.28306882  0.96517196  0.54142453     0.13400
H2093       H  0.30934745  0.90006002  0.61038500     0.11100
H2094       H  0.35144064  0.90815441  0.60100661     0.13100
C2095       C  0.29410914  0.80140563  0.70302972     0.19200
C2096       C  0.29159034  0.82102647  0.69984681    -0.18900
C2097       C  0.30430249  0.83136847  0.68836000    -0.11200
C2098       C  0.32002064  0.82237883  0.67963130     0.21400
C2099       C  0.32275726  0.80282312  0.68293895    -0.20500
C2100       C  0.30993934  0.79240027  0.69438455    -0.11400
C2101       C  0.33400184  0.83313042  0.66750942    -0.15500
C2102       C  0.32906056  0.84854238  0.65706582    -0.29400
C2103       C  0.28008154  0.79142646  0.71584617    -0.03700
C2104       C  0.27963306  0.77250441  0.71961758    -0.40200
H2105       H  0.27973086  0.82850283  0.70641378     0.12600
H2106       H  0.30196673  0.84649926  0.68669656     0.12200
H2107       H  0.33482130  0.79553913  0.67653338     0.11600
H2108       H  0.31270331  0.77742543  0.69649184     0.11900
H2109       H  0.34853105  0.82769026  0.66638061     0.14600
H2110       H  0.31424857  0.85326846  0.65720663     0.13400
H2111       H  0.26939496  0.80047304  0.72240617     0.11100
H2112       H  0.28978565  0.76308644  0.71274833     0.13100
C2113       C  0.44165145  0.82982914  0.43481362     0.19200
C2114       C  0.44499962  0.84520910  0.42251156    -0.18900
C2115       C  0.43159025  0.85017172  0.40848778    -0.11200
C2116       C  0.41429261  0.84006515  0.40648060     0.21400
C2117       C  0.41098463  0.82436235  0.41859316    -0.20500
C2118       C  0.42459202  0.81926219  0.43260491    -0.11400
C2119       C  0.39998841  0.84742365  0.39237519    -0.15500
C2120       C  0.38276785  0.83960306  0.38827031    -0.29400
C2121       C  0.45562908  0.82647364  0.45061595    -0.03700
C2122       C  0.45831365  0.80972038  0.45959785    -0.40200
H2123       H  0.45796756  0.85364255  0.42394052     0.12600
H2124       H  0.43458592  0.86233435  0.39944904     0.12200
H2125       H  0.39780702  0.81627540  0.41773447     0.11600
H2126       H  0.42137231  0.80756126  0.44212855     0.11900
H2127       H  0.40398847  0.86039133  0.38494686     0.14600
H2128       H  0.37865754  0.82593280  0.39414156     0.13400
H2129       H  0.46459146  0.83851362  0.45475298     0.11100
H2130       H  0.45047092  0.79710090  0.45508299     0.13100
C2131       C  0.43373840  0.93543817  0.31718049     0.19200
C2132       C  0.42126881  0.93704644  0.33278435    -0.18900
C2133       C  0.40671004  0.92375327  0.33555425    -0.11200
C2134       C  0.40448814  0.90818867  0.32298520     0.21400
C2135       C  0.41645684  0.90689071  0.30690407    -0.20500
C2136       C  0.43107757  0.92035881  0.30404311    -0.11400
C2137       C  0.38999586  0.89314907  0.32692536    -0.15500
C2138       C  0.38624019  0.88802289  0.34510112    -0.29400
C2139       C  0.44979981  0.94927168  0.31597325    -0.03700
C2140       C  0.45903013  0.95390127  0.29974253    -0.40200
H2141       H  0.42287006  0.94861640  0.34299418     0.12600
H2142       H  0.39726205  0.92563237  0.34768309     0.12200
H2143       H  0.41491728  0.89510804  0.29694767     0.11600
H2144       H  0.44059567  0.91854833  0.29197726     0.11900
H2145       H  0.38283952  0.88614976  0.31496464     0.14600
H2146       H  0.39467068  0.89438893  0.35660262     0.13400
H2147       H  0.45370530  0.95663647  0.32917994     0.11100
H2148       H  0.45483050  0.94763333  0.28610220     0.13100
C2149       C  0.31564441  0.94233028  0.43727394     0.19200
C2150       C  0.33008976  0.92870900  0.43975968    -0.18900
C2151       C  0.33313879  0.91462413  0.42597596    -0.11200
C2152       C  0.32208677  0.91409605  0.40901467     0.21400
C2153       C  0.30735814  0.92753838  0.40663986    -0.20500
C2154       C  0.30416004  0.94158544  0.42061478    -0.11400
C2155       C  0.32555338  0.89958405  0.39378703    -0.15500
C2156       C  0.34283332  0.89138696  0.39135730    -0.29400
C2157       C  0.31395609  0.95764004  0.45187501    -0.03700
C2158       C  0.29767426  0.96711435  0.45580324    -0.40200
H2159       H  0.33905753  0.92892395  0.45251125     0.12600
H2160       H  0.34409305  0.90411342  0.42881745     0.12200
H2161       H  0.29856712  0.92739992  0.39377214     0.11600
H2162       H  0.29312444  0.95210720  0.41808745     0.11900
H2163       H  0.31386024  0.89622731  0.38400033     0.14600
H2164       H  0.35482888  0.89599295  0.40019741     0.13400
H2165       H  0.32677536  0.96084408  0.46025389     0.11100
H2166       H  0.28437908  0.96351064  0.44845152     0.13100
C2167       C  0.29544414  0.79432386  0.29238271     0.19200
C2168       C  0.28928115  0.80245395  0.30971107    -0.18900
C2169       C  0.30156812  0.81406282  0.32063855    -0.11200
C2170       C  0.32032317  0.81798725  0.31433615     0.21400
C2171       C  0.32638236  0.81010389  0.29688257    -0.20500
C2172       C  0.31408343  0.79858362  0.28592237    -0.11400
C2173       C  0.33424837  0.82941401  0.32592049    -0.15500
C2174       C  0.32905818  0.84244679  0.33910131    -0.29400
C2175       C  0.28204612  0.78164089  0.28143633    -0.03700
C2176       C  0.28811307  0.76839459  0.26885165    -0.40200
H2177       H  0.27501260  0.79949430  0.31502491     0.12600
H2178       H  0.29646053  0.81946033  0.33422200     0.12200
H2179       H  0.34070719  0.81293993  0.29164815     0.11600
H2180       H  0.31925411  0.79324417  0.27234640     0.11900
H2181       H  0.34945062  0.82720720  0.32335598     0.14600
H2182       H  0.31398642  0.84555340  0.34126548     0.13400
H2183       H  0.26688693  0.78279822  0.28456854     0.11100
H2184       H  0.30338825  0.76656481  0.26666222     0.13100
C2185       C  0.67659062  0.93736552  0.44110449     0.19200
C2186       C  0.68857302  0.93131873  0.42608999    -0.18900
C2187       C  0.68274535  0.91645603  0.41379201    -0.11200
C2188       C  0.66488743  0.90737446  0.41643219     0.21400
C2189       C  0.65326346  0.91331644  0.43167041    -0.20500
C2190       C  0.65896505  0.92814044  0.44372490    -0.11400
C2191       C  0.65704659  0.89224418  0.40357235    -0.15500
C2192       C  0.66522900  0.88558048  0.38743845    -0.29400
C2193       C  0.68106341  0.95376646  0.45386990    -0.03700
C2194       C  0.69872385  0.96067709  0.45772320    -0.40200
H2195       H  0.70212934  0.93834399  0.42347171     0.12600
H2196       H  0.69214547  0.91239798  0.40221910     0.12200
H2197       H  0.63944205  0.90668281  0.43409810     0.11600
H2198       H  0.64942863  0.93251352  0.45513453     0.11900
H2199       H  0.64324917  0.88638422  0.40767230     0.14600
H2200       H  0.67953958  0.88995163  0.38333568     0.13400
H2201       H  0.66891491  0.95998727  0.46130928     0.11100
H2202       H  0.71135226  0.95432075  0.45134619     0.13100
C2203       C  0.56411625  0.82384137  0.44404294     0.19200
C2204       C  0.57842814  0.83783482  0.44556741    -0.18900
C2205       C  0.59239206  0.83969684  0.43138840    -0.11200
C2206       C  0.59211600  0.82780714  0.41508446     0.21400
C2207       C  0.57804710  0.81353289  0.41373604    -0.20500
C2208       C  0.56409782  0.81161568  0.42798643    -0.11400
C2209       C  0.60615759  0.83011429  0.39924446    -0.15500
C2210       C  0.61395488  0.84712492  0.39497286    -0.29400
C2211       C  0.54901540  0.82302162  0.45900082    -0.03700
C2212       C  0.53918135  0.80709913  0.46325536    -0.40200
H2213       H  0.57883195  0.84735661  0.45782409     0.12600
H2214       H  0.60340066  0.85042658  0.43331352     0.12200
H2215       H  0.57753824  0.80416710  0.40136350     0.11600
H2216       H  0.55304481  0.80093231  0.42607406     0.11900
H2217       H  0.60912479  0.81782843  0.39027674     0.14600
H2218       H  0.60969954  0.85959003  0.40311435     0.13400
H2219       H  0.54626883  0.83592933  0.46717512     0.11100
H2220       H  0.54247991  0.79379132  0.45605666     0.13100
C2221       C  0.59041882  0.90165512  0.32360192     0.19200
C2222       C  0.58946863  0.91176184  0.30627640    -0.18900
C2223       C  0.57509985  0.92545377  0.30329429    -0.11200
C2224       C  0.56129598  0.92901088  0.31756788     0.21400
C2225       C  0.56189041  0.91828767  0.33448537    -0.20500
C2226       C  0.57611822  0.90469889  0.33741545    -0.11400
C2227       C  0.54658797  0.94425828  0.31617006    -0.15500
C2228       C  0.54102585  0.95289283  0.29985417    -0.29400
C2229       C  0.60642528  0.88818118  0.32745825    -0.03700
C2230       C  0.61373743  0.88659623  0.34528931    -0.40200
H2231       H  0.60021655  0.90952793  0.29534686     0.12600
H2232       H  0.57526437  0.93354464  0.29012608     0.12200
H2233       H  0.55135704  0.92054571  0.34562791     0.11600
H2234       H  0.57594554  0.89663021  0.35062574     0.11900
H2235       H  0.53962707  0.94834760  0.32947595     0.14600
H2236       H  0.54700619  0.94873854  0.28614384     0.13400
H2237       H  0.61216999  0.87983665  0.31570607     0.11100
H2238       H  0.60841415  0.89607725  0.35636990     0.13100
C2239       C  0.70815799  0.79000432  0.30186267     0.19200
C2240       C  0.70184919  0.78836436  0.32086920    -0.18900
C2241       C  0.69015160  0.80225194  0.32906413    -0.11200
C2242       C  0.68444224  0.81829299  0.31845901     0.21400
C2243       C  0.69102556  0.82021639  0.29954397    -0.20500
C2244       C  0.70267662  0.80616389  0.29123792    -0.11400
C2245       C  0.67265363  0.83360294  0.32735832    -0.15500
C2246       C  0.65989860  0.82997787  0.34133738    -0.29400
C2247       C  0.72131176  0.77505388  0.29437937    -0.03700
C2248       C  0.72484190  0.77169564  0.27565078    -0.40200
H2249       H  0.70612558  0.77629761  0.32953414     0.12600
H2250       H  0.68606423  0.80060761  0.34391977     0.12200
H2251       H  0.68715927  0.83262705  0.29119653     0.11600
H2252       H  0.70770025  0.80827265  0.27674971     0.11900
H2253       H  0.67471908  0.84817820  0.32259737     0.14600
H2254       H  0.65705247  0.81530095  0.34528177     0.13400
H2255       H  0.72794014  0.76600463  0.30508160     0.11100
H2256       H  0.71728438  0.77974296  0.26473381     0.13100
C2257       C  0.40876278  0.15838741  0.42029744     0.19200
C2258       C  0.41176370  0.14631933  0.43605105    -0.18900
C2259       C  0.42527417  0.15083854  0.45020562    -0.11200
C2260       C  0.43607873  0.16765715  0.44914773     0.21400
C2261       C  0.43298603  0.17997816  0.43353147    -0.20500
C2262       C  0.41947912  0.17539328  0.41923897    -0.11400
C2263       C  0.45118960  0.17099709  0.46395636    -0.15500
C2264       C  0.45935668  0.18800166  0.46777809    -0.29400
C2265       C  0.39513515  0.15186874  0.40506483    -0.03700
C2266       C  0.39059172  0.16152915  0.38899583    -0.40200
H2267       H  0.40385772  0.13308014  0.43726468     0.12600
H2268       H  0.42743131  0.14100791  0.46196791     0.12200
H2269       H  0.44136134  0.19284225  0.43190783     0.11600
H2270       H  0.41790641  0.18503900  0.40730179     0.11900
H2271       H  0.45574962  0.15870631  0.47224584     0.14600
H2272       H  0.45465005  0.20072726  0.46036070     0.13400
H2273       H  0.38860912  0.13802005  0.40727251     0.11100
H2274       H  0.39567664  0.17594434  0.38683755     0.13100
C2275       C  0.31484446  0.06420023  0.42519713     0.19200
C2276       C  0.32874649  0.06132018  0.41105541    -0.18900
C2277       C  0.33243232  0.07531081  0.39743050    -0.11200
C2278       C  0.32251125  0.09270889  0.39785195     0.21400
C2279       C  0.30777080  0.09521991  0.41123444    -0.20500
C2280       C  0.30401086  0.08111767  0.42492103    -0.11400
C2281       C  0.32840836  0.10866671  0.38526523    -0.15500
C2282       C  0.34712852  0.11188435  0.38199818    -0.29400
C2283       C  0.31341476  0.04997560  0.44081253    -0.03700
C2284       C  0.29777977  0.04736568  0.45166852    -0.40200
H2285       H  0.33713970  0.04835630  0.41083166     0.12600
H2286       H  0.34345131  0.07270878  0.38685934     0.12200
H2287       H  0.29987360  0.10847458  0.41173512     0.11600
H2288       H  0.29333721  0.08392988  0.43576239     0.11900
H2289       H  0.31758674  0.11838487  0.37985584     0.14600
H2290       H  0.35766926  0.10290489  0.38905883     0.13400
H2291       H  0.32586788  0.04099832  0.44330601     0.11100
H2292       H  0.28468640  0.05519140  0.44874276     0.13100
C2293       C  0.43953415  0.05760678  0.32025431     0.19200
C2294       C  0.43461032  0.06338797  0.33887016    -0.18900
C2295       C  0.42160190  0.07815423  0.34186651    -0.11200
C2296       C  0.41326787  0.08780441  0.32623121     0.21400
C2297       C  0.41780004  0.08176552  0.30757999    -0.20500
C2298       C  0.43083473  0.06688798  0.30456209    -0.11400
C2299       C  0.39929600  0.10363300  0.32893161    -0.15500
C2300       C  0.39828442  0.11382513  0.34528164    -0.29400
C2301       C  0.45378882  0.04193763  0.31827604    -0.03700
C2302       C  0.46038010  0.03486722  0.30157521    -0.40200
H2303       H  0.44082612  0.05638461  0.35125533     0.12600
H2304       H  0.41793701  0.08161078  0.35650865     0.12200
H2305       H  0.41135031  0.08869965  0.29528056     0.11600
H2306       H  0.43395651  0.06287667  0.28994618     0.11900
H2307       H  0.38940487  0.10672273  0.31726256     0.14600
H2308       H  0.40822149  0.11103231  0.35693389     0.13400
H2309       H  0.45939764  0.03598076  0.33154541     0.11100
H2310       H  0.45533152  0.04025994  0.28791857     0.13100
C2311       C  0.30263233  0.21073720  0.29541590     0.19200
C2312       C  0.32274773  0.21088649  0.29637942    -0.18900
C2313       C  0.33249284  0.19879627  0.30905200    -0.11200
C2314       C  0.32223166  0.18673752  0.32137021     0.21400
C2315       C  0.30213111  0.18704269  0.32088831    -0.20500
C2316       C  0.29239508  0.19875154  0.30788422    -0.11400
C2317       C  0.33223541  0.17443406  0.33544098    -0.15500
C2318       C  0.34737372  0.16361287  0.33064412    -0.29400
C2319       C  0.29260535  0.22322431  0.28140686    -0.03700
C2320       C  0.27670565  0.21741223  0.27209384    -0.40200
H2321       H  0.33092798  0.22014447  0.28708043     0.12600
H2322       H  0.34802190  0.19911217  0.30949165     0.12200
H2323       H  0.29396602  0.17804041  0.33045333     0.11600
H2324       H  0.27686495  0.19864503  0.30781084     0.11900
H2325       H  0.32654672  0.17364561  0.34989832     0.14600
H2326       H  0.35224667  0.16350223  0.31586024     0.13400
H2327       H  0.29918879  0.23673439  0.27769227     0.11100
H2328       H  0.27135728  0.20308514  0.27456024     0.13100
C2329       C  0.41550443  0.08819200  0.66126576     0.19200
C2330       C  0.43462727  0.09147471  0.66675014    -0.18900
C2331       C  0.44677089  0.07620949  0.67102269    -0.11200
C2332       C  0.44010178  0.05738866  0.66927005     0.21400
C2333       C  0.42098351  0.05410731  0.66380041    -0.20500
C2334       C  0.40866901  0.06938548  0.66013052    -0.11400
C2335       C  0.45335630  0.04108695  0.67126515    -0.15500
C2336       C  0.46630659  0.03986109  0.68555185    -0.29400
C2337       C  0.40349247  0.10437135  0.65496099    -0.03700
C2338       C  0.38477628  0.10577647  0.65913899    -0.40200
H2339       H  0.44022360  0.10586387  0.66747230     0.12600
H2340       H  0.46158569  0.07907056  0.67483330     0.12200
H2341       H  0.41566036  0.03968944  0.66213855     0.11600
H2342       H  0.39408497  0.06647911  0.65553446     0.11900
H2343       H  0.45217308  0.02959218  0.66084032     0.14600
H2344       H  0.46648122  0.05043820  0.69695910     0.13400
H2345       H  0.41038112  0.11572538  0.64694960     0.11100
H2346       H  0.37808760  0.09561545  0.66874377     0.13100
C2347       C  0.44718642  0.18292190  0.57619057     0.19200
C2348       C  0.44908009  0.16988113  0.59127327    -0.18900
C2349       C  0.43437016  0.16743468  0.60454849    -0.11200
C2350       C  0.41715302  0.17773445  0.60283886     0.21400
C2351       C  0.41560903  0.19153499  0.58837942    -0.20500
C2352       C  0.43044206  0.19407602  0.57509076    -0.11400
C2353       C  0.40032741  0.17340311  0.61519755    -0.15500
C2354       C  0.39683876  0.15549874  0.62104567    -0.29400
C2355       C  0.46216570  0.18304567  0.56107373    -0.03700
C2356       C  0.46543037  0.19761759  0.54901792    -0.40200
H2357       H  0.46186644  0.16122588  0.59256308     0.12600
H2358       H  0.43638515  0.15716841  0.61592900     0.12200
H2359       H  0.40254444  0.19971675  0.58680677     0.11600
H2360       H  0.42832519  0.20408583  0.56351395     0.11900
H2361       H  0.38983038  0.18448813  0.61785152     0.14600
H2362       H  0.40650328  0.14422990  0.61664238     0.13400
H2363       H  0.47097401  0.17035042  0.55981892     0.11100
H2364       H  0.45771367  0.21092405  0.55059754     0.13100
C2365       C  0.32430443  0.10180426  0.58353472     0.19200
C2366       C  0.30743312  0.09086360  0.58329217    -0.18900
C2367       C  0.30367130  0.07812667  0.56821440    -0.11200
C2368       C  0.31666141  0.07632722  0.55291800     0.21400
C2369       C  0.33305602  0.08795563  0.55277139    -0.20500
C2370       C  0.33679295  0.10064360  0.56779909    -0.11400
C2371       C  0.31461180  0.06159553  0.53767306    -0.15500
C2372       C  0.29821830  0.05228218  0.53338228    -0.29400
C2373       C  0.32884932  0.11384113  0.60056494    -0.03700
C2374       C  0.34705739  0.11697997  0.60633178    -0.40200
H2375       H  0.29751853  0.09161350  0.59517856     0.12600
H2376       H  0.29101589  0.06925568  0.56905361     0.12200
H2377       H  0.34322032  0.08699214  0.54110924     0.11600
H2378       H  0.34957062  0.10938707  0.56711523     0.11900
H2379       H  0.32745774  0.05814576  0.52961265     0.14600
H2380       H  0.28487671  0.05595903  0.54038210     0.13400
H2381       H  0.31700627  0.11895249  0.60917603     0.11100
H2382       H  0.35869703  0.11050967  0.59838466     0.13100
C2383       C  0.31334629  0.18340983  0.67290806     0.19200
C2384       C  0.31048869  0.20320189  0.67337851    -0.18900
C2385       C  0.29773068  0.21135893  0.68661630    -0.11200
C2386       C  0.28737540  0.19973694  0.69940141     0.21400
C2387       C  0.28964414  0.17992417  0.69816600    -0.20500
C2388       C  0.30244705  0.17186527  0.68517490    -0.11400
C2389       C  0.27409833  0.20722773  0.71433726    -0.15500
C2390       C  0.27394729  0.22527041  0.72103712    -0.29400
C2391       C  0.32753439  0.17474749  0.65958344    -0.03700
C2392       C  0.33806441  0.15960644  0.66497264    -0.40200
H2393       H  0.31844737  0.21236957  0.66380557     0.12600
H2394       H  0.29602126  0.22665269  0.68669047     0.12200
H2395       H  0.28167496  0.17057096  0.70755708     0.11600
H2396       H  0.30374456  0.15651072  0.68470592     0.11900
H2397       H  0.26450045  0.19690681  0.72075257     0.14600
H2398       H  0.28312107  0.23597548  0.71467474     0.13400
H2399       H  0.32944874  0.18083895  0.64541692     0.11100
H2400       H  0.33679874  0.15459066  0.67964530     0.13100
C2401       C  0.68591264  0.06722453  0.43730202     0.19200
C2402       C  0.67194706  0.08128294  0.43986883    -0.18900
C2403       C  0.66853365  0.09483397  0.42572454    -0.11200
C2404       C  0.67866447  0.09433204  0.40832555     0.21400
C2405       C  0.69319038  0.08070941  0.40598883    -0.20500
C2406       C  0.69677833  0.06718484  0.42033505    -0.11400
C2407       C  0.67375019  0.10747332  0.39233652    -0.15500
C2408       C  0.65565823  0.11365530  0.38983328    -0.29400
C2409       C  0.68768798  0.05233485  0.45221241    -0.03700
C2410       C  0.70367528  0.04222142  0.45565987    -0.40200
H2411       H  0.66352471  0.08172596  0.45288050     0.12600
H2412       H  0.65781393  0.10560715  0.42845783     0.12200
H2413       H  0.70128507  0.08011218  0.39278413     0.11600
H2414       H  0.70749315  0.05636315  0.41778797     0.11900
H2415       H  0.68475713  0.11106544  0.38201000     0.14600
H2416       H  0.64458718  0.10860188  0.39944113     0.13400
H2417       H  0.67525529  0.05006312  0.46128120     0.11100
H2418       H  0.71667327  0.04486237  0.44758917     0.13100
C2419       C  0.55656980  0.16815074  0.43693722     0.19200
C2420       C  0.57249246  0.17989745  0.43309780    -0.18900
C2421       C  0.58514192  0.17533703  0.41814006    -0.11200
C2422       C  0.58196256  0.15901721  0.40671740     0.21400
C2423       C  0.56583708  0.14764085  0.41046871    -0.20500
C2424       C  0.55341696  0.15206574  0.42541405    -0.11400
C2425       C  0.59538673  0.15223525  0.39162500    -0.15500
C2426       C  0.61139907  0.16115804  0.38562455    -0.29400
C2427       C  0.54353229  0.17125668  0.45343812    -0.03700
C2428       C  0.53999180  0.18828728  0.46156186    -0.40200
H2429       H  0.57558394  0.19218766  0.44199880     0.12600
H2430       H  0.59752071  0.18434687  0.41595783     0.12200
H2431       H  0.56301203  0.13494403  0.40203334     0.11600
H2432       H  0.54133435  0.14273126  0.42809590     0.11900
H2433       H  0.59181354  0.13860242  0.38512118     0.14600
H2434       H  0.61488822  0.17544998  0.39043142     0.13400
H2435       H  0.53582639  0.15885201  0.45866520     0.11100
H2436       H  0.54660692  0.20111611  0.45598853     0.13100
C2437       C  0.59065481  0.08537469  0.32671591     0.19200
C2438       C  0.58171140  0.08313994  0.30875303    -0.18900
C2439       C  0.56804838  0.06876063  0.30573372    -0.11200
C2440       C  0.56329341  0.05613298  0.32063965     0.21400
C2441       C  0.57254239  0.05819240  0.33845682    -0.20500
C2442       C  0.58615025  0.07250448  0.34145321    -0.11400
C2443       C  0.54844850  0.04100894  0.31867866    -0.15500
C2444       C  0.54136241  0.03443194  0.30190174    -0.29400
C2445       C  0.60485379  0.10096668  0.32961719    -0.03700
C2446       C  0.60811123  0.10889354  0.34694899    -0.40200
H2447       H  0.58503789  0.09278544  0.29713387     0.12600
H2448       H  0.56105863  0.06791398  0.29187650     0.12200
H2449       H  0.56927700  0.04860694  0.35014953     0.11600
H2450       H  0.59325382  0.07324162  0.35527525     0.11900
H2451       H  0.54332379  0.03467199  0.33191245     0.14600
H2452       H  0.54646959  0.03991316  0.28833469     0.13400
H2453       H  0.61241774  0.10613701  0.31711839     0.11100
H2454       H  0.59980242  0.10416921  0.35915534     0.13100
C2455       C  0.68431841  0.18102452  0.32042617     0.19200
C2456       C  0.70141261  0.19054025  0.32545366    -0.18900
C2457       C  0.71159132  0.20119011  0.31183648    -0.11200
C2458       C  0.70477895  0.20259502  0.29284435     0.21400
C2459       C  0.68772805  0.19308241  0.28786465    -0.20500
C2460       C  0.67759791  0.18250684  0.30139511    -0.11400
C2461       C  0.71380839  0.21498253  0.27809808    -0.15500
C2462       C  0.73174150  0.22228347  0.27890692    -0.29400
C2463       C  0.67339809  0.17052665  0.33549043    -0.03700
C2464       C  0.65987865  0.15733055  0.33143731    -0.40200
H2465       H  0.70681400  0.18989489  0.34004129     0.12600
H2466       H  0.72439674  0.20869074  0.31639998     0.12200
H2467       H  0.68194896  0.19414150  0.27343982     0.11600
H2468       H  0.66420767  0.17610181  0.29687645     0.11900
H2469       H  0.70500810  0.21808991  0.26559584     0.14600
H2470       H  0.74156082  0.21814573  0.29026234     0.13400
H2471       H  0.67661894  0.17365832  0.35044782     0.11100
H2472       H  0.65710553  0.15334971  0.31664760     0.13100
C2473       C  0.69355981  0.06179916  0.56365030     0.19200
C2474       C  0.68991256  0.05930699  0.58325672    -0.18900
C2475       C  0.68411952  0.07469335  0.59462800    -0.11200
C2476       C  0.68126803  0.09271617  0.58638698     0.21400
C2477       C  0.68527415  0.09527726  0.56685304    -0.20500
C2478       C  0.69167237  0.08002205  0.55562373    -0.11400
C2479       C  0.67185127  0.10823766  0.59725358    -0.15500
C2480       C  0.67537588  0.11171536  0.61590785    -0.29400
C2481       C  0.69602222  0.04487931  0.55121150    -0.03700
C2482       C  0.70872989  0.04399057  0.53679649    -0.40200
H2483       H  0.69093610  0.04529147  0.58962224     0.12600
H2484       H  0.68071899  0.07221527  0.60955320     0.12200
H2485       H  0.68291237  0.10898178  0.56016311     0.11600
H2486       H  0.69392047  0.08218232  0.54042259     0.11900
H2487       H  0.66160692  0.11709452  0.58959120     0.14600
H2488       H  0.68685043  0.10422889  0.62329416     0.13400
H2489       H  0.68643168  0.03290310  0.55362279     0.11100
H2490       H  0.71943955  0.05509855  0.53506091     0.13100
C2491       C  0.56758382  0.06135319  0.66971125     0.19200
C2492       C  0.56816690  0.07285959  0.65332260    -0.18900
C2493       C  0.58215683  0.08695153  0.65143976    -0.11200
C2494       C  0.59613709  0.08964094  0.66583292     0.21400
C2495       C  0.59537327  0.07839921  0.68241275    -0.20500
C2496       C  0.58133735  0.06427307  0.68431359    -0.11400
C2497       C  0.61154396  0.10412324  0.66399290    -0.15500
C2498       C  0.61833564  0.10963526  0.64684020    -0.29400
C2499       C  0.55276451  0.04618581  0.67060803    -0.03700
C2500       C  0.54688554  0.03799760  0.68696529    -0.40200
H2501       H  0.55767890  0.07099514  0.64193442     0.12600
H2502       H  0.58182824  0.09580130  0.63876714     0.12200
H2503       H  0.60593098  0.08026951  0.69373306     0.11600
H2504       H  0.58165888  0.05545822  0.69699716     0.11900
H2505       H  0.61793994  0.10959835  0.67711449     0.14600
H2506       H  0.61281795  0.10298983  0.63386431     0.13400
H2507       H  0.54592894  0.04201395  0.65717388     0.11100
H2508       H  0.55274612  0.04243238  0.70071693     0.13100
C2509       C  0.57594477  0.18253602  0.55857158     0.19200
C2510       C  0.59147109  0.17040317  0.55499892    -0.18900
C2511       C  0.60582465  0.16777955  0.56879440    -0.11200
C2512       C  0.60471294  0.17689239  0.58677588     0.21400
C2513       C  0.58966830  0.18977841  0.58999732    -0.20500
C2514       C  0.57537147  0.19257228  0.57605518    -0.11400
C2515       C  0.61840878  0.17253992  0.60267981    -0.15500
C2516       C  0.62724692  0.15555311  0.60408024    -0.29400
C2517       C  0.55980362  0.18279188  0.54458864    -0.03700
C2518       C  0.54775027  0.19753654  0.54212310    -0.40200
H2519       H  0.59232149  0.16263908  0.54157391     0.12600
H2520       H  0.61758463  0.15836872  0.56537170     0.12200
H2521       H  0.58852307  0.19708606  0.60364975     0.11600
H2522       H  0.56345311  0.20183479  0.57938104     0.11900
H2523       H  0.61971327  0.18274060  0.61434687     0.14600
H2524       H  0.62457988  0.14476500  0.59322712     0.13400
H2525       H  0.55787303  0.17015314  0.53572340     0.11100
H2526       H  0.55015804  0.21089099  0.54965251     0.13100
C2527       C  0.71040508  0.20463150  0.70810099     0.19200
C2528       C  0.70086298  0.18754732  0.71236652    -0.18900
C2529       C  0.69025659  0.17787503  0.69831368    -0.11200
C2530       C  0.68893091  0.18508179  0.67953409     0.21400
C2531       C  0.69851800  0.20213208  0.67521895    -0.20500
C2532       C  0.70909955  0.21186882  0.68932911    -0.11400
C2533       C  0.67889109  0.17449751  0.66387030    -0.15500
C2534       C  0.66493052  0.16162652  0.66702621    -0.29400
C2535       C  0.72258845  0.21352225  0.72329951    -0.03700
C2536       C  0.72910238  0.23163029  0.72302828    -0.40200
H2537       H  0.70187027  0.18146164  0.72660036     0.12600
H2538       H  0.68371657  0.16444460  0.70212688     0.12200
H2539       H  0.69800338  0.20782572  0.66080094     0.11600
H2540       H  0.71666683  0.22467621  0.68526582     0.11900
H2541       H  0.68327492  0.17719314  0.64918645     0.14600
H2542       H  0.65969541  0.15940254  0.68147344     0.13400
H2543       H  0.72601352  0.20464434  0.73555900     0.11100
H2544       H  0.72453735  0.24128922  0.71180496     0.13100
C2545       C  0.43698976  0.67718605  0.92673357     0.19200
C2546       C  0.43930085  0.66299202  0.91278720    -0.18900
C2547       C  0.42530569  0.65991827  0.89874135    -0.11200
C2548       C  0.40823284  0.67060537  0.89861720     0.21400
C2549       C  0.40614333  0.68527832  0.91219954    -0.20500
C2550       C  0.42037320  0.68854796  0.92619157    -0.11400
C2551       C  0.39232615  0.66618435  0.88485725    -0.15500
C2552       C  0.38954259  0.64833495  0.87829851    -0.29400
C2553       C  0.45188689  0.67889285  0.94196950    -0.03700
C2554       C  0.45604971  0.69507985  0.95149597    -0.40200
H2555       H  0.45204981  0.65419205  0.91275148     0.12600
H2556       H  0.42794753  0.64906160  0.88804365     0.12200
H2557       H  0.39322215  0.69381169  0.91236038     0.11600
H2558       H  0.41802665  0.69947884  0.93689037     0.11900
H2559       H  0.38222101  0.67733375  0.88114718     0.14600
H2560       H  0.39887697  0.63711266  0.88346268     0.13400
H2561       H  0.46054594  0.66633231  0.94475944     0.11100
H2562       H  0.44842642  0.70814069  0.94821942     0.13100
C2563       C  0.43202589  0.55534480  0.80519932     0.19200
C2564       C  0.41643867  0.55206931  0.81737955    -0.18900
C2565       C  0.40216801  0.56578749  0.81967011    -0.11200
C2566       C  0.40333182  0.58338954  0.81013599     0.21400
C2567       C  0.41829892  0.58628317  0.79705365    -0.20500
C2568       C  0.43259650  0.57241378  0.79463591    -0.11400
C2569       C  0.38986959  0.59919195  0.81489690    -0.15500
C2570       C  0.38429319  0.60181703  0.83315644    -0.29400
C2571       C  0.44804726  0.54136698  0.80532084    -0.03700
C2572       C  0.46030599  0.53869690  0.79072050    -0.40200
H2573       H  0.41551589  0.53898248  0.82551502     0.12600
H2574       H  0.39046109  0.56279079  0.82935467     0.12200
H2575       H  0.41947022  0.59965910  0.78945756     0.11600
H2576       H  0.44451234  0.57550862  0.78526136     0.11900
H2577       H  0.38589358  0.60940596  0.80392093     0.14600
H2578       H  0.39001060  0.59234440  0.84405428     0.13400
H2579       H  0.44951008  0.53246879  0.81798234     0.11100
H2580       H  0.45835033  0.54631164  0.77732886     0.13100
C2581       C  0.32271310  0.55288909  0.93091285     0.19200
C2582       C  0.33619830  0.55121102  0.91618069    -0.18900
C2583       C  0.33746119  0.56501030  0.90190592    -0.11200
C2584       C  0.32551110  0.58112691  0.90225570     0.21400
C2585       C  0.31141296  0.58244926  0.91649350    -0.20500
C2586       C  0.31005713  0.56850033  0.93079429    -0.11400
C2587       C  0.32806059  0.59685818  0.88824141    -0.15500
C2588       C  0.34561015  0.60140399  0.88172536    -0.29400
C2589       C  0.32329575  0.53870920  0.94666163    -0.03700
C2590       C  0.30826631  0.53432263  0.95782358    -0.40200
H2591       H  0.34596355  0.53923654  0.91581913     0.12600
H2592       H  0.34797549  0.56309945  0.89070231     0.12200
H2593       H  0.30194549  0.59464610  0.91697579     0.11600
H2594       H  0.29964116  0.57038793  0.94208070     0.11900
H2595       H  0.31565490  0.60522134  0.88409808     0.14600
H2596       H  0.35792103  0.59369553  0.88725671     0.13400
H2597       H  0.33668487  0.53105939  0.94875337     0.11100
H2598       H  0.29436321  0.54079259  0.95529433     0.13100
C2599       C  0.29478391  0.70339990  0.79104937     0.19200
C2600       C  0.28940373  0.69270899  0.80715198    -0.18900
C2601       C  0.30246899  0.68068722  0.81642798    -0.11200
C2602       C  0.32146593  0.67892484  0.80982495     0.21400
C2603       C  0.32691364  0.68975910  0.79378672    -0.20500
C2604       C  0.31377906  0.70182088  0.78446951    -0.11400
C2605       C  0.33612226  0.66664133  0.81966102    -0.15500
C2606       C  0.33174481  0.65303632  0.83258148    -0.29400
C2607       C  0.28035753  0.71667330  0.78244730    -0.03700
C2608       C  0.28144621  0.72447583  0.76476617    -0.40200
H2609       H  0.27497994  0.69379154  0.81275476     0.12600
H2610       H  0.29757139  0.67325362  0.82902476     0.12200
H2611       H  0.34146803  0.68898081  0.78848933     0.11600
H2612       H  0.31872296  0.71015354  0.77244873     0.11900
H2613       H  0.35112680  0.66881170  0.81611432     0.14600
H2614       H  0.31685238  0.65014500  0.83582557     0.13400
H2615       H  0.26779477  0.71959678  0.79107229     0.11100
H2616       H  0.29308853  0.72058031  0.75530097     0.13100
C2617       C  0.69145643  0.57519817  0.94271511     0.19200
C2618       C  0.67771638  0.58963180  0.94445721    -0.18900
C2619       C  0.67474768  0.60263647  0.92967675    -0.11200
C2620       C  0.68521682  0.60128005  0.91254204     0.21400
C2621       C  0.69979279  0.58758382  0.91118520    -0.20500
C2622       C  0.70286081  0.57454761  0.92610844    -0.11400
C2623       C  0.68014076  0.61312822  0.89560208    -0.15500
C2624       C  0.66172553  0.61756328  0.89191343    -0.29400
C2625       C  0.69204827  0.56031798  0.95779169    -0.03700
C2626       C  0.70700301  0.54873414  0.96127328    -0.40200
H2627       H  0.66888660  0.59058764  0.95716646     0.12600
H2628       H  0.66389379  0.61347617  0.93152276     0.12200
H2629       H  0.70813930  0.58635073  0.89818235     0.11600
H2630       H  0.71346154  0.56350039  0.92416471     0.11900
H2631       H  0.69120418  0.61662042  0.88528670     0.14600
H2632       H  0.65067569  0.61234273  0.90147535     0.13400
H2633       H  0.67936531  0.55898356  0.96670523     0.11100
H2634       H  0.72034901  0.55036429  0.95351195     0.13100
C2635       C  0.55763719  0.68235435  0.92314744     0.19200
C2636       C  0.55734524  0.66614812  0.91135628    -0.18900
C2637       C  0.57190464  0.66287590  0.89815127    -0.11200
C2638       C  0.58743627  0.67557906  0.89667221     0.21400
C2639       C  0.58730678  0.69233469  0.90774902    -0.20500
C2640       C  0.57257376  0.69569371  0.92098146    -0.11400
C2641       C  0.60408837  0.67121515  0.88414816    -0.15500
C2642       C  0.60970496  0.65313270  0.88097341    -0.29400
C2643       C  0.54294032  0.68368769  0.93841764    -0.03700
C2644       C  0.53765271  0.69977495  0.94750357    -0.40200
H2645       H  0.54591241  0.65575103  0.91258322     0.12600
H2646       H  0.57103910  0.65022819  0.88927935     0.12200
H2647       H  0.59901148  0.70244397  0.90672032     0.11600
H2648       H  0.57337717  0.70825481  0.92997085     0.11900
H2649       H  0.61244575  0.68299735  0.87858541     0.14600
H2650       H  0.60211214  0.64161192  0.88797985     0.13400
H2651       H  0.53585244  0.67043695  0.94224945     0.11100
H2652       H  0.54360769  0.71345820  0.94344841     0.13100
C2653       C  0.56668160  0.56103929  0.81416339     0.19200
C2654       C  0.57163384  0.56607475  0.83304051    -0.18900
C2655       C  0.58645567  0.57890368  0.83682377    -0.11200
C2656       C  0.59704646  0.58699478  0.82175752     0.21400
C2657       C  0.59211380  0.58205386  0.80279588    -0.20500
C2658       C  0.57713203  0.56914935  0.79897775    -0.11400
C2659       C  0.61217074  0.60165444  0.82544910    -0.15500
C2660       C  0.62097054  0.60355447  0.84260845    -0.29400
C2661       C  0.55051056  0.54735839  0.81152236    -0.03700
C2662       C  0.54379222  0.54055818  0.79466085    -0.40200
H2663       H  0.56379097  0.56022675  0.84504721     0.12600
H2664       H  0.58901693  0.58281440  0.85162197     0.12200
H2665       H  0.59981862  0.58827321  0.79089835     0.11600
H2666       H  0.57381616  0.56576627  0.78419635     0.11900
H2667       H  0.61530780  0.61172645  0.81409761     0.14600
H2668       H  0.61819396  0.59336008  0.85389052     0.13400
H2669       H  0.54382555  0.54227629  0.82460449     0.11100
H2670       H  0.54992325  0.54500240  0.78114372     0.13100
C2671       C  0.70570875  0.69355940  0.78255364     0.19200
C2672       C  0.68570037  0.69274264  0.78438588    -0.18900
C2673       C  0.67718901  0.68060698  0.79764009    -0.11200
C2674       C  0.68850378  0.66878964  0.80930848     0.21400
C2675       C  0.70851542  0.66902153  0.80707066    -0.20500
C2676       C  0.71711929  0.68146090  0.79392286    -0.11400
C2677       C  0.67940650  0.65593435  0.82348323    -0.15500
C2678       C  0.66395186  0.66144347  0.83353896    -0.29400
C2679       C  0.71368543  0.70688096  0.76815825    -0.03700
C2680       C  0.73141986  0.71456562  0.76883021    -0.40200
H2681       H  0.67656729  0.70168818  0.77560434     0.12600
H2682       H  0.66169174  0.68030375  0.79856252     0.12200
H2683       H  0.71748193  0.65977988  0.81569440     0.11600
H2684       H  0.73256105  0.68133422  0.79249567     0.11900
H2685       H  0.68554349  0.64192928  0.82587009     0.14600
H2686       H  0.65876336  0.67593539  0.83194481     0.13400
H2687       H  0.70390828  0.71108792  0.75679195     0.11100
H2688       H  0.74154070  0.71028632  0.77986920     0.13100
C2689       C  0.68177967  0.45070281  0.93592374     0.19200
C2690       C  0.67666549  0.45369406  0.91667355    -0.18900
C2691       C  0.67102480  0.43837056  0.90504295    -0.11200
C2692       C  0.66975808  0.41995200  0.91274299     0.21400
C2693       C  0.67471082  0.41699645  0.93202041    -0.20500
C2694       C  0.68099523  0.43219323  0.94345828    -0.11400
C2695       C  0.66197633  0.40396756  0.90125057    -0.15500
C2696       C  0.66825127  0.40008563  0.88351689    -0.29400
C2697       C  0.68574609  0.46719666  0.94856227    -0.03700
C2698       C  0.69994101  0.46727558  0.96169424    -0.40200
H2699       H  0.67685920  0.46792169  0.91071738     0.12600
H2700       H  0.66691339  0.44099992  0.89027894     0.12200
H2701       H  0.67359378  0.40292472  0.93824225     0.11600
H2702       H  0.68440794  0.42963899  0.95840761     0.11900
H2703       H  0.65148134  0.39464940  0.90788891     0.14600
H2704       H  0.68013642  0.40816161  0.87760902     0.13400
H2705       H  0.67648511  0.47955836  0.94718592     0.11100
H2706       H  0.71025204  0.45570823  0.96215294     0.13100
C2707       C  0.59533869  0.41156147  0.82237555     0.19200
C2708       C  0.59523733  0.42266438  0.80564607    -0.18900
C2709       C  0.58075009  0.43617315  0.80246372    -0.11200
C2710       C  0.56598340  0.43868207  0.81595404     0.21400
C2711       C  0.56586103  0.42722130  0.83237280    -0.20500
C2712       C  0.58015621  0.41367952  0.83544914    -0.11400
C2713       C  0.55085461  0.45347630  0.81401691    -0.15500
C2714       C  0.54493566  0.46083936  0.79720079    -0.29400
C2715       C  0.61148270  0.39813687  0.82617084    -0.03700
C2716       C  0.61705277  0.39405064  0.84421386    -0.40200
H2717       H  0.60667613  0.42125785  0.79529155     0.12600
H2718       H  0.58150104  0.44495365  0.78976817     0.12200
H2719       H  0.55458380  0.42871903  0.84289924     0.11600
H2720       H  0.57919326  0.40487883  0.84811749     0.11900
H2721       H  0.54368179  0.45793322  0.82708576     0.14600
H2722       H  0.55111627  0.45594921  0.78381751     0.13400
H2723       H  0.61937673  0.39242687  0.81408677     0.11100
H2724       H  0.60987768  0.40106491  0.85604111     0.13100
C2725       C  0.57308024  0.32441934  0.93664894     0.19200
C2726       C  0.58782094  0.33762588  0.94012959    -0.18900
C2727       C  0.60231066  0.34056114  0.92669422    -0.11200
C2728       C  0.60221410  0.33064830  0.90910172     0.21400
C2729       C  0.58783001  0.31693226  0.90583960    -0.20500
C2730       C  0.57334527  0.31386397  0.91942655    -0.11400
C2731       C  0.61650482  0.33487564  0.89377500    -0.15500
C2732       C  0.62439567  0.35230120  0.89193631    -0.29400
C2733       C  0.55738107  0.32290194  0.95099108    -0.03700
C2734       C  0.54619437  0.30743741  0.95331614    -0.40200
H2735       H  0.58810281  0.34580318  0.95333579     0.12600
H2736       H  0.61351984  0.35069561  0.93016844     0.12200
H2737       H  0.58743986  0.30901918  0.89247866     0.11600
H2738       H  0.56209290  0.30373099  0.91609384     0.11900
H2739       H  0.61924182  0.32409281  0.88293921     0.14600
H2740       H  0.62017638  0.36350982  0.90176787     0.13400
H2741       H  0.55550808  0.33489388  0.96069702     0.11100
H2742       H  0.54847557  0.29479674  0.94464275     0.13100
C2743       C  0.70853338  0.29484027  0.79765075     0.19200
C2744       C  0.71225247  0.30296424  0.81572267    -0.18900
C2745       C  0.69888693  0.31482310  0.82458352    -0.11200
C2746       C  0.68125014  0.31899734  0.81563865     0.21400
C2747       C  0.67721655  0.31055943  0.79772323    -0.20500
C2748       C  0.69075816  0.29869667  0.78871500    -0.11400
C2749       C  0.66685550  0.33156329  0.82526357    -0.15500
C2750       C  0.67239952  0.34606092  0.83676791    -0.29400
C2751       C  0.72335361  0.28179599  0.78948558    -0.03700
C2752       C  0.72462888  0.27636152  0.77091934    -0.40200
H2753       H  0.72561930  0.30004735  0.82314848     0.12600
H2754       H  0.70229383  0.32037291  0.83870177     0.12200
H2755       H  0.66362359  0.31324650  0.79064368     0.11600
H2756       H  0.68709243  0.29233926  0.77502242     0.11900
H2757       H  0.65166656  0.32888366  0.82294653     0.14600
H2758       H  0.68763040  0.34919556  0.83784467     0.13400
H2759       H  0.73434253  0.27707183  0.79944513     0.11100
H2760       H  0.71458087  0.28197234  0.76044714     0.13100
C2761       C  0.44071207  0.43733356  0.81400750     0.19200
C2762       C  0.43798166  0.42970916  0.83237763    -0.18900
C2763       C  0.42387649  0.41600090  0.83567206    -0.11200
C2764       C  0.41181940  0.40972382  0.82065931     0.21400
C2765       C  0.41466153  0.41714829  0.80219517    -0.20500
C2766       C  0.42888078  0.43089314  0.79886915    -0.11400
C2767       C  0.39673621  0.39497840  0.82370308    -0.15500
C2768       C  0.38884094  0.39170738  0.84098883    -0.29400
C2769       C  0.45571261  0.45226258  0.81174571    -0.03700
C2770       C  0.46268755  0.45860169  0.79491626    -0.40200
H2771       H  0.44694051  0.43428297  0.84429374     0.12600
H2772       H  0.42280374  0.41015790  0.84995647     0.12200
H2773       H  0.40569825  0.41244777  0.79033922     0.11600
H2774       H  0.43028432  0.43655025  0.78454559     0.11900
H2775       H  0.39217979  0.38664844  0.81135810     0.14600
H2776       H  0.39297455  0.40050634  0.85313296     0.13400
H2777       H  0.46159589  0.45822303  0.82494543     0.11100
H2778       H  0.45765628  0.45278002  0.78137115     0.13100
C2779       C  0.33193123  0.42826903  0.94217161     0.19200
C2780       C  0.34745636  0.41589428  0.94473026    -0.18900
C2781       C  0.35147481  0.40185854  0.93118987    -0.11200
C2782       C  0.34026544  0.39992800  0.91450732     0.21400
C2783       C  0.32427228  0.41197814  0.91209214    -0.20500
C2784       C  0.32010823  0.42601130  0.92587162    -0.11400
C2785       C  0.34706189  0.38621199  0.89970232    -0.15500
C2786       C  0.33879765  0.38287091  0.88250396    -0.29400
C2787       C  0.32979998  0.44414867  0.95609952    -0.03700
C2788       C  0.31329582  0.45325813  0.95997507    -0.40200
H2789       H  0.35679977  0.41732662  0.95713371     0.12600
H2790       H  0.36386875  0.39284949  0.93350255     0.12200
H2791       H  0.31529305  0.41109166  0.89943304     0.11600
H2792       H  0.30819270  0.43553776  0.92331902     0.11900
H2793       H  0.36031815  0.37878265  0.90302961     0.14600
H2794       H  0.32487377  0.38872997  0.87890332     0.13400
H2795       H  0.34261268  0.44811524  0.96415646     0.11100
H2796       H  0.29996594  0.44894157  0.95309655     0.13100
C2797       C  0.41691839  0.34536093  0.90598016     0.19200
C2798       C  0.42838713  0.35912594  0.91519524    -0.18900
C2799       C  0.44184313  0.35396624  0.92914566    -0.11200
C2800       C  0.44437066  0.33484661  0.93435682     0.21400
C2801       C  0.43285826  0.32093149  0.92522394    -0.20500
C2802       C  0.41928888  0.32612898  0.91119765    -0.11400
C2803       C  0.45910342  0.33047184  0.94938830    -0.15500
C2804       C  0.46443586  0.31288787  0.95502374    -0.29400
C2805       C  0.40290266  0.35209576  0.89117872    -0.03700
C2806       C  0.39004751  0.34117428  0.88158144    -0.40200
H2807       H  0.42693983  0.37405580  0.91160647     0.12600
H2808       H  0.45038736  0.36505712  0.93587961     0.12200
H2809       H  0.43410768  0.30603772  0.92881215     0.11600
H2810       H  0.41083323  0.31498651  0.90455807     0.11900
H2811       H  0.46625167  0.34260483  0.95603910     0.14600
H2812       H  0.45798769  0.30030736  0.94866053     0.13400
H2813       H  0.40353407  0.36715547  0.88798864     0.11100
H2814       H  0.38963654  0.32592420  0.88380937     0.13100
C2815       C  0.30210541  0.28276997  0.79383617     0.19200
C2816       C  0.31048250  0.27706959  0.81127183    -0.18900
C2817       C  0.32010048  0.29006774  0.82304384    -0.11200
C2818       C  0.32209120  0.30911466  0.81757544     0.21400
C2819       C  0.31421835  0.31495340  0.79986631    -0.20500
C2820       C  0.30416937  0.30190112  0.78811887    -0.11400
C2821       C  0.33163252  0.32240530  0.83131362    -0.15500
C2822       C  0.34252083  0.33732063  0.82607814    -0.29400
C2823       C  0.29063889  0.26817519  0.78317001    -0.03700
C2824       C  0.27855948  0.27116590  0.76824313    -0.40200
H2825       H  0.30914718  0.26249361  0.81614417     0.12600
H2826       H  0.32598908  0.28519768  0.83658406     0.12200
H2827       H  0.31528721  0.32966012  0.79539222     0.11600
H2828       H  0.29793726  0.30688710  0.77481792     0.11900
H2829       H  0.33075592  0.31899403  0.84649019     0.14600
H2830       H  0.34439457  0.34042934  0.81094987     0.13400
H2831       H  0.29125819  0.25386366  0.78902066     0.11100
H2832       H  0.27801476  0.28478379  0.76099488     0.13100
C2833       C  0.42115970  0.40435691  0.16842733     0.19200
C2834       C  0.44097333  0.40319052  0.17165985    -0.18900
C2835       C  0.45174464  0.41961333  0.17520159    -0.11200
C2836       C  0.44292664  0.43757724  0.17504543     0.21400
C2837       C  0.42304057  0.43876648  0.17211914    -0.20500
C2838       C  0.41214953  0.42223954  0.16911138    -0.11400
C2839       C  0.45468087  0.45511608  0.17575293    -0.15500
C2840       C  0.46991966  0.45683625  0.18748506    -0.29400
C2841       C  0.41085811  0.38726744  0.16146508    -0.03700
C2842       C  0.39247189  0.38346556  0.16555549    -0.40200
H2843       H  0.44821777  0.38958189  0.17084501     0.12600
H2844       H  0.46713246  0.41835068  0.17697007     0.12200
H2845       H  0.41603550  0.45251323  0.17170418     0.11600
H2846       H  0.39694344  0.42355728  0.16616280     0.11900
H2847       H  0.45096958  0.46668217  0.16610001     0.14600
H2848       H  0.47273928  0.44603413  0.19825961     0.13400
H2849       H  0.41867406  0.37763778  0.15210926     0.11100
H2850       H  0.38485724  0.39183035  0.17619087     0.13100
C2851       C  0.42385739  0.31838089  0.09619368     0.19200
C2852       C  0.42106059  0.30528402  0.08113863    -0.18900
C2853       C  0.43451496  0.30364615  0.06631804    -0.11200
C2854       C  0.45115491  0.31506187  0.06632880     0.21400
C2855       C  0.45438083  0.32743037  0.08186209    -0.20500
C2856       C  0.44108853  0.32891105  0.09672370    -0.11400
C2857       C  0.46487484  0.31552320  0.05000684    -0.15500
C2858       C  0.46714105  0.30132538  0.03718635    -0.29400
C2859       C  0.40811482  0.32159418  0.11033639    -0.03700
C2860       C  0.40607155  0.33830984  0.11963362    -0.40200
H2861       H  0.40803777  0.29686576  0.08040431     0.12600
H2862       H  0.43138749  0.29406251  0.05452929     0.12200
H2863       H  0.46717671  0.33620555  0.08239366     0.11600
H2864       H  0.44434934  0.33853643  0.10843578     0.11900
H2865       H  0.47396050  0.32806187  0.04880955     0.14600
H2866       H  0.45926857  0.28808250  0.03871804     0.13400
H2867       H  0.39689053  0.31091498  0.11143410     0.11100
H2868       H  0.41641993  0.34957251  0.11725176     0.13100
C2869       C  0.34148779  0.40438762  0.08948549     0.19200
C2870       C  0.32508880  0.41596449  0.08989677    -0.18900
C2871       C  0.32232704  0.43024754  0.07616380    -0.11200
C2872       C  0.33590600  0.43314366  0.06158242     0.21400
C2873       C  0.35226492  0.42156695  0.06116654    -0.20500
C2874       C  0.35496299  0.40724012  0.07478257    -0.11400
C2875       C  0.33385892  0.44828725  0.04682912    -0.15500
C2876       C  0.31690728  0.45559598  0.04118750    -0.29400
C2877       C  0.34398173  0.38940708  0.10441548    -0.03700
C2878       C  0.36125436  0.38229185  0.10928330    -0.40200
H2879       H  0.31448576  0.41411217  0.10103997     0.12600
H2880       H  0.30975599  0.43917271  0.07726030     0.12200
H2881       H  0.36291774  0.42344948  0.05007185     0.11600
H2882       H  0.36749167  0.39829975  0.07347303     0.11900
H2883       H  0.34684327  0.45298377  0.03967247     0.14600
H2884       H  0.30362632  0.45040466  0.04732053     0.13400
H2885       H  0.33137058  0.38493161  0.11228524     0.11100
H2886       H  0.37405525  0.38790402  0.10258218     0.13100
C2887       C  0.33117511  0.30958295  0.18354855     0.19200
C2888       C  0.33624109  0.29596567  0.19747456    -0.18900
C2889       C  0.32209694  0.28604634  0.20772374    -0.11200
C2890       C  0.30254531  0.28963208  0.20425079     0.21400
C2891       C  0.29752727  0.30344284  0.19064174    -0.20500
C2892       C  0.31155903  0.31341540  0.18057196    -0.11400
C2893       C  0.28683053  0.27822243  0.21288292    -0.15500
C2894       C  0.28793259  0.26814979  0.22932187    -0.29400
C2895       C  0.34663573  0.31997441  0.17300980    -0.03700
C2896       C  0.34346207  0.33089351  0.15738206    -0.40200
H2897       H  0.35119935  0.29280683  0.20025484     0.12600
H2898       H  0.32649182  0.27523695  0.21785700     0.12200
H2899       H  0.28257254  0.30649711  0.18767949     0.11600
H2900       H  0.30675442  0.32417873  0.17063512     0.11900
H2901       H  0.27330448  0.27824320  0.20505545     0.14600
H2902       H  0.30049079  0.26917388  0.23853472     0.13400
H2903       H  0.36118955  0.31902596  0.17859788     0.11100
H2904       H  0.32925295  0.33167447  0.15109381     0.13100
C2905       C  0.56093287  0.68348797  0.05521402     0.19200
C2906       C  0.56004263  0.66867507  0.06860518    -0.18900
C2907       C  0.57385105  0.66709542  0.08305460    -0.11200
C2908       C  0.58917298  0.68012919  0.08421352     0.21400
C2909       C  0.58974911  0.69535967  0.07124006    -0.20500
C2910       C  0.57581910  0.69700096  0.05676484    -0.11400
C2911       C  0.60471536  0.67794164  0.09871253    -0.15500
C2912       C  0.61016570  0.66065991  0.10496410    -0.29400
C2913       C  0.54653056  0.68368347  0.03946947    -0.03700
C2914       C  0.54134333  0.69936162  0.02973705    -0.40200
H2915       H  0.54860820  0.65821698  0.06785735     0.12600
H2916       H  0.57245449  0.65562773  0.09328723     0.12200
H2917       H  0.60131971  0.70566368  0.07195031     0.11600
H2918       H  0.57712374  0.70846466  0.04652657     0.11900
H2919       H  0.61214204  0.69064758  0.10363328     0.14600
H2920       H  0.60335866  0.64808019  0.09891181     0.13400
H2921       H  0.53919671  0.67033836  0.03634242     0.11100
H2922       H  0.54746613  0.71314250  0.03333468     0.13100
C2923       C  0.68714609  0.57476400  0.06055327     0.19200
C2924       C  0.66900365  0.58321015  0.06194157    -0.18900
C2925       C  0.66554267  0.59758583  0.07522449    -0.11200
C2926       C  0.68009081  0.60380246  0.08782494     0.21400
C2927       C  0.69855922  0.59606751  0.08595313    -0.20500
C2928       C  0.70208463  0.58153998  0.07249528    -0.11400
C2929       C  0.67588062  0.61835631  0.10279032    -0.15500
C2930       C  0.65851854  0.61887772  0.11112048    -0.29400
C2931       C  0.68910241  0.55870024  0.04675509    -0.03700
C2932       C  0.70548746  0.54984948  0.04181611    -0.40200
H2933       H  0.65729035  0.57856243  0.05275708     0.12600
H2934       H  0.65136308  0.60382467  0.07556855     0.12200
H2935       H  0.71009115  0.60087655  0.09526592     0.11600
H2936       H  0.71630638  0.57549060  0.07183027     0.11900
H2937       H  0.68681688  0.62876307  0.10654522     0.14600
H2938       H  0.64817661  0.60779415  0.10764390     0.13400
H2939       H  0.67585326  0.55394109  0.03994762     0.11100
H2940       H  0.71921831  0.55427450  0.04770774     0.13100
C2941       C  0.56491040  0.56669225  0.16330847     0.19200
C2942       C  0.56112245  0.58606758  0.16044930    -0.18900
C2943       C  0.57618038  0.59890599  0.15752968    -0.11200
C2944       C  0.59521582  0.59240846  0.15683599     0.21400
C2945       C  0.59898739  0.57300275  0.15958388    -0.20500
C2946       C  0.58398502  0.56026655  0.16310430    -0.11400
C2947       C  0.61092774  0.60520257  0.15089968    -0.15500
C2948       C  0.61237997  0.62337142  0.15679113    -0.29400
C2949       C  0.54879320  0.55315894  0.16536176    -0.03700
C2950       C  0.54902044  0.53945001  0.17870143    -0.40200
H2951       H  0.54649095  0.59122779  0.16036923     0.12600
H2952       H  0.57287892  0.61373906  0.15493184     0.12200
H2953       H  0.61353349  0.56768103  0.15874867     0.11600
H2954       H  0.58720256  0.54529731  0.16492253     0.11900
H2955       H  0.62151069  0.59952432  0.14102837     0.14600
H2956       H  0.60305633  0.62881530  0.16795996     0.13400
H2957       H  0.53627845  0.55489637  0.15616543     0.11100
H2958       H  0.56083520  0.53874836  0.18891800     0.13100
C2959       C  0.70526127  0.70956105  0.20732372     0.19200
C2960       C  0.69311426  0.71733242  0.19324553    -0.18900
C2961       C  0.68246188  0.70552978  0.18086712    -0.11200
C2962       C  0.68384800  0.68554901  0.18222675     0.21400
C2963       C  0.69609225  0.67783654  0.19621363    -0.20500
C2964       C  0.70673201  0.68958905  0.20850351    -0.11400
C2965       C  0.67287434  0.67203140  0.16973607    -0.15500
C2966       C  0.66077629  0.67701300  0.15547921    -0.29400
C2967       C  0.71686470  0.72261903  0.21980394    -0.03700
C2968       C  0.72523781  0.71700610  0.23629574    -0.40200
H2969       H  0.69183059  0.73263563  0.19182974     0.12600
H2970       H  0.67325527  0.71224607  0.17039650     0.12200
H2971       H  0.69759253  0.66254403  0.19757026     0.11600
H2972       H  0.71638489  0.68279874  0.21852408     0.11900
H2973       H  0.67457529  0.65691882  0.17263892     0.14600
H2974       H  0.65855163  0.69183242  0.15187708     0.13400
H2975       H  0.71891629  0.73714209  0.21493743     0.11100
H2976       H  0.72305371  0.70262161  0.24142701     0.13100
C2977       C  0.67601709  0.41131857  0.08484818     0.19200
C2978       C  0.69271216  0.42251291  0.08595693    -0.18900
C2979       C  0.69523870  0.43815603  0.07381002    -0.11200
C2980       C  0.68111442  0.44284291  0.06010923     0.21400
C2981       C  0.66445299  0.43164920  0.05899397    -0.20500
C2982       C  0.66197566  0.41597811  0.07103489    -0.11400
C2983       C  0.68297466  0.45927886  0.04681947    -0.15500
C2984       C  0.69981301  0.46729752  0.04195189    -0.29400
C2985       C  0.67384589  0.39494637  0.09824027    -0.03700
C2986       C  0.65674999  0.38708550  0.10247774    -0.40200
H2987       H  0.70375799  0.41928624  0.09644200     0.12600
H2988       H  0.70809760  0.44665096  0.07546606     0.12200
H2989       H  0.65337989  0.43488061  0.04853554     0.11600
H2990       H  0.64915791  0.40747858  0.06916489     0.11900
H2991       H  0.66992595  0.46433311  0.03992390     0.14600
H2992       H  0.71319200  0.46199229  0.04784892     0.13400
H2993       H  0.68664374  0.39001230  0.10560117     0.11100
H2994       H  0.64376771  0.39286257  0.09620681     0.13100
C2995       C  0.57488880  0.43865503  0.17201724     0.19200
C2996       C  0.57913102  0.42189858  0.18208018    -0.18900
C2997       C  0.59268288  0.40899518  0.17498908    -0.11200
C2998       C  0.60249588  0.41285941  0.15781412     0.21400
C2999       C  0.59877742  0.43003620  0.14826445    -0.20500
C3000       C  0.58521722  0.44281946  0.15528203    -0.11400
C3001       C  0.61572093  0.39909347  0.14852508    -0.15500
C3002       C  0.62297667  0.38340339  0.15688124    -0.29400
C3003       C  0.55958565  0.45153765  0.17907137    -0.03700
C3004       C  0.54854302  0.46162780  0.16693733    -0.40200
H3005       H  0.57147208  0.41848320  0.19510591     0.12600
H3006       H  0.59490930  0.39586125  0.18271253     0.12200
H3007       H  0.60620936  0.43348306  0.13510986     0.11600
H3008       H  0.58283032  0.45594257  0.14753454     0.11900
H3009       H  0.61985527  0.40229757  0.13389210     0.14600
H3010       H  0.62063309  0.38060229  0.17197179     0.13400
H3011       H  0.55684672  0.45213971  0.19439185     0.11100
H3012       H  0.55046342  0.46012481  0.15155849     0.13100
C3013       C  0.56589015  0.31006700  0.06284973     0.19200
C3014       C  0.56300958  0.32000382  0.08007050    -0.18900
C3015       C  0.57806305  0.32272703  0.09309642    -0.11200
C3016       C  0.59655979  0.31591165  0.08900930     0.21400
C3017       C  0.59921079  0.30492614  0.07234078    -0.20500
C3018       C  0.58402052  0.30205691  0.05930227    -0.11400
C3019       C  0.61335459  0.32109110  0.10134166    -0.15500
C3020       C  0.61439327  0.33817909  0.11014620    -0.29400
C3021       C  0.55034824  0.31044282  0.04817730    -0.03700
C3022       C  0.54755949  0.29715924  0.03446329    -0.40200
H3023       H  0.54913840  0.32615708  0.08322697     0.12600
H3024       H  0.57527188  0.33060106  0.10615433     0.12200
H3025       H  0.61327324  0.29938217  0.06892990     0.11600
H3026       H  0.58677320  0.29450333  0.04604712     0.11900
H3027       H  0.62564067  0.31162353  0.10167212     0.14600
H3028       H  0.60276187  0.34823371  0.10813771     0.13400
H3029       H  0.54049471  0.32240845  0.04884709     0.11100
H3030       H  0.55613094  0.28427677  0.03423500     0.13100
C3031       C  0.68708220  0.31320796  0.17631616     0.19200
C3032       C  0.68064118  0.30325056  0.19245886    -0.18900
C3033       C  0.69347271  0.29379010  0.20457007    -0.11200
C3034       C  0.71334246  0.29381710  0.20081997     0.21400
C3035       C  0.71983143  0.30382921  0.18464612    -0.20500
C3036       C  0.70692610  0.31340376  0.17251981    -0.11400
C3037       C  0.72765919  0.28342422  0.21306563    -0.15500
C3038       C  0.72283910  0.27199699  0.22780618    -0.29400
C3039       C  0.67243711  0.32325961  0.16433103    -0.03700
C3040       C  0.67630891  0.33544641  0.14995727    -0.40200
H3041       H  0.66549899  0.30288062  0.19586239     0.12600
H3042       H  0.68743800  0.28664380  0.21680316     0.12200
H3043       H  0.73497940  0.30415899  0.18128546     0.11600
H3044       H  0.71266515  0.32074510  0.16022401     0.11900
H3045       H  0.74274143  0.28460330  0.20938006     0.14600
H3046       H  0.70794314  0.27029614  0.23163614     0.13400
H3047       H  0.65747184  0.32127896  0.16818054     0.11100
H3048       H  0.69097961  0.33815753  0.14571292     0.13100
C3049       C  0.42157291  0.66690704  0.09104066     0.19200
C3050       C  0.42979595  0.68493627  0.08816409    -0.18900
C3051       C  0.44151628  0.68840179  0.07230471    -0.11200
C3052       C  0.44505883  0.67387881  0.05883529     0.21400
C3053       C  0.43696945  0.65582477  0.06182405    -0.20500
C3054       C  0.42526056  0.65237337  0.07762477    -0.11400
C3055       C  0.45752493  0.67659658  0.04183509    -0.15500
C3056       C  0.46221231  0.69362137  0.03429178    -0.29400
C3057       C  0.40807616  0.66417272  0.10724980    -0.03700
C3058       C  0.40373092  0.64695384  0.11454060    -0.40200
H3059       H  0.42711724  0.69639863  0.09822655     0.12600
H3060       H  0.44786965  0.70237165  0.07083054     0.12200
H3061       H  0.43946753  0.64437712  0.05169152     0.11600
H3062       H  0.41872131  0.63846240  0.07887781     0.11900
H3063       H  0.46289055  0.66375939  0.03497836     0.14600
H3064       H  0.45664169  0.70673270  0.04030265     0.13400
H3065       H  0.40128680  0.67683907  0.11292504     0.11100
H3066       H  0.41138621  0.63447582  0.10957009     0.13100
C3067       C  0.44123801  0.55750248  0.18626544     0.19200
C3068       C  0.42129910  0.55610653  0.18374674    -0.18900
C3069       C  0.41057396  0.57207090  0.17838868    -0.11200
C3070       C  0.41978560  0.58953024  0.17488658     0.21400
C3071       C  0.43960137  0.59107339  0.17807869    -0.20500
C3072       C  0.45022157  0.57527424  0.18400373    -0.11400
C3073       C  0.40965344  0.60523977  0.16508041    -0.15500
C3074       C  0.39141738  0.60998951  0.16875961    -0.29400
C3075       C  0.45283158  0.53993585  0.18734368    -0.03700
C3076       C  0.46936106  0.53870148  0.19727393    -0.40200
H3077       H  0.41416874  0.54245394  0.18505849     0.12600
H3078       H  0.39536155  0.57040342  0.17561311     0.12200
H3079       H  0.44699350  0.60433547  0.17519279     0.11600
H3080       H  0.46564995  0.57662725  0.18533217     0.11900
H3081       H  0.41745308  0.61297815  0.15410388     0.14600
H3082       H  0.38390716  0.60368607  0.18079242     0.13400
H3083       H  0.44845346  0.52812765  0.17816836     0.11100
H3084       H  0.47340407  0.54966295  0.20756263     0.13100
C3085       C  0.33729256  0.58816979  0.08902537     0.19200
C3086       C  0.31883355  0.58092947  0.08539808    -0.18900
C3087       C  0.31580759  0.56701496  0.07120785    -0.11200
C3088       C  0.33126560  0.56022081  0.06018933     0.21400
C3089       C  0.34960716  0.56782709  0.06361013    -0.20500
C3090       C  0.35260264  0.58165137  0.07772436    -0.11400
C3091       C  0.32935929  0.54524334  0.04509415    -0.15500
C3092       C  0.31291803  0.53651267  0.03979229    -0.29400
C3093       C  0.34019219  0.60296494  0.10412555    -0.03700
C3094       C  0.35707028  0.60508149  0.11339021    -0.40200
H3095       H  0.30675352  0.58590443  0.09371941     0.12600
H3096       H  0.30139916  0.56170691  0.06909392     0.12200
H3097       H  0.36176409  0.56308888  0.05525252     0.11600
H3098       H  0.36691313  0.58741512  0.07944860     0.11900
H3099       H  0.34251216  0.54103396  0.03794227     0.14600
H3100       H  0.29935815  0.54021088  0.04630665     0.13400
H3101       H  0.32819624  0.61213463  0.10758734     0.11100
H3102       H  0.36859048  0.59515949  0.11044915     0.13100
C3103       C  0.29862236  0.70349407  0.19680351     0.19200
C3104       C  0.31568205  0.70855560  0.18757680    -0.18900
C3105       C  0.32628552  0.69500451  0.17749214    -0.11200
C3106       C  0.31984987  0.67599899  0.17606606     0.21400
C3107       C  0.30249242  0.67105514  0.18488696    -0.20500
C3108       C  0.29191349  0.68462860  0.19505966    -0.11400
C3109       C  0.33132989  0.66077023  0.16660404    -0.15500
C3110       C  0.34609897  0.66431686  0.15479164    -0.29400
C3111       C  0.28856881  0.71823370  0.20833444    -0.03700
C3112       C  0.27679539  0.71409303  0.22295824    -0.40200
H3113       H  0.32116850  0.72296887  0.18867172     0.12600
H3114       H  0.33977646  0.69951888  0.17146425     0.12200
H3115       H  0.29715468  0.65657504  0.18402909     0.11600
H3116       H  0.27852574  0.68024300  0.20145076     0.11900
H3117       H  0.32786465  0.64603490  0.16986452     0.14600
H3118       H  0.34938362  0.67881981  0.15069320     0.13400
H3119       H  0.29197039  0.73309438  0.20560859     0.11100
H3120       H  0.27382209  0.69935821  0.22650559     0.13100
loop_ 
_geom_bond_atom_site_label_1 
_geom_bond_atom_site_label_2 
_geom_bond_distance 
_geom_bond_site_symmetry_2 
_ccdc_geom_bond_type 
C1            C2   1.538       .  S
C1            C7   1.541       .  S
C1            C5   1.539       .  S
C1         C3110   1.512       .  S
C2            H9   1.086       .  S
C2            C3   1.362       .  D
C3            C4   1.537       .  S
C3         C3074   1.478       .  S
C4            C8   1.537       .  S
C4            C6   1.533       .  S
C4           H10   1.111       .  S
C5           H11   1.084       .  S
C5            C6   1.367       .  D
C6         C3058   1.487       .  S
C7           H12   1.084       .  S
C7            C8   1.372       .  D
C8         C3094   1.485       .  S
C13          C14   1.541       .  S
C13          C19   1.542       .  S
C13          C17   1.543       .  S
C13        C3040   1.518       .  S
C14          H21   1.086       .  S
C14          C15   1.363       .  D
C15          C16   1.537       .  S
C15        C3002   1.485       .  S
C16          C20   1.532       .  S
C16          C18   1.535       .  S
C16          H22   1.110       .  S
C17          H23   1.085       .  S
C17          C18   1.369       .  D
C18        C3020   1.486       .  S
C19          H24   1.084       .  S
C19          C20   1.370       .  D
C20        C2986   1.486       .  S
C25          C26   1.546       .  S
C25          C31   1.542       .  S
C25          C29   1.541       .  S
C25        C2966   1.515       .  S
C26          H33   1.085       .  S
C26          C27   1.369       .  D
C27          C28   1.530       .  S
C27        C2930   1.480       .  S
C28          C32   1.531       .  S
C28          C30   1.533       .  S
C28          H34   1.112       .  S
C29          H35   1.084       .  S
C29          C30   1.369       .  D
C30        C2912   1.483       .  S
C31          H36   1.086       .  S
C31          C32   1.362       .  D
C32        C2948   1.477       .  S
C37          C38   1.545       .  S
C37          C43   1.540       .  S
C37          C41   1.547       .  S
C37        C2896   1.517       .  S
C38          H45   1.085       .  S
C38          C39   1.368       .  D
C39          C40   1.531       .  S
C39        C2878   1.486       .  S
C40          C44   1.533       .  S
C40          C42   1.531       .  S
C40          H46   1.111       .  S
C41          H47   1.085       .  S
C41          C42   1.372       .  D
C42        C2860   1.486       .  S
C43          H48   1.086       .  S
C43          C44   1.362       .  D
C44        C2842   1.477       .  S
O49          V57   1.899       .  S
O49          C59   1.265       .  A
O50          V57   1.904       .  S
O50          C60   1.266       .  A
O51          V57   1.894       .  S
O51          C61   1.262       .  A
O52          V57   1.887       .  S
O52          C62   1.262       .  A
O53          V58   1.913       .  S
O53          C62   1.266       .  A
O54          V58   1.907       .  S
O54          C61   1.266       .  A
O55          V58   1.896       .  S
O55          C60   1.262       .  A
O56          V58   1.899       .  S
O56          C59   1.263       .  A
V57          V58   2.088       .  T
C59        C2840   1.470       .  S
C60        C2950   1.471       .  S
C61        C3004   1.473       .  S
C62        C3076   1.472       .  S
C63          C64   1.540       .  S
C63          C69   1.546       .  S
C63          C67   1.539       .  S
C63        C2822   1.520       .  S
C64          H71   1.086       .  S
C64          C65   1.364       .  D
C65          C66   1.540       .  S
C65        C2786   1.487       .  S
C66          C70   1.541       .  S
C66          C68   1.535       .  S
C66          H72   1.105       .  S
C67          H73   1.084       .  S
C67          C68   1.368       .  D
C68        C2768   1.486       .  S
C69          H74   1.086       .  S
C69          C70   1.369       .  D
C70        C2806   1.496       .  S
C75          C76   1.548       .  S
C75          C81   1.542       .  S
C75          C79   1.545       .  S
C75        C2750   1.521       .  S
C76          H83   1.085       .  S
C76          C77   1.371       .  D
C77          C78   1.531       .  S
C77        C2732   1.486       .  S
C78          C82   1.529       .  S
C78          C80   1.536       .  S
C78          H84   1.111       .  S
C79          H85   1.085       .  S
C79          C80   1.375       .  D
C80        C2716   1.485       .  S
C81          H86   1.087       .  S
C81          C82   1.357       .  D
C82        C2696   1.479       .  S
C87          C88   1.543       .  S
C87          C93   1.542       .  S
C87          C91   1.544       .  S
C87        C2678   1.511       .  S
C88          H95   1.085       .  S
C88          C89   1.366       .  D
C89          C90   1.531       .  S
C89        C2642   1.484       .  S
C90          C94   1.532       .  S
C90          C92   1.531       .  S
C90          H96   1.112       .  S
C91          H97   1.085       .  S
C91          C92   1.369       .  D
C92        C2624   1.481       .  S
C93          H98   1.085       .  S
C93          C94   1.367       .  D
C94        C2660   1.481       .  S
C99         C100   1.547       .  S
C99         C105   1.548       .  S
C99         C103   1.550       .  S
C99        C2606   1.522       .  S
C100        H107   1.085       .  S
C100        C101   1.370       .  D
C101        C102   1.530       .  S
C101       C2552   1.485       .  S
C102        C106   1.526       .  S
C102        C104   1.529       .  S
C102        H108   1.112       .  S
C103        H109   1.085       .  S
C103        C104   1.371       .  D
C104       C2570   1.485       .  S
C105        H110   1.085       .  S
C105        C106   1.366       .  D
C106       C2588   1.483       .  S
O111        V119   1.911   1_556  S
O111        C121   1.266       .  A
O112        V119   1.907       .  S
O112        C122   1.265       .  A
O113        V119   1.903   1_556  S
O113        C123   1.264       .  A
O114        V119   1.904       .  S
O114        C124   1.264       .  A
O115        V120   1.901   1_554  S
O115        C124   1.265       .  A
O116        V120   1.900       .  S
O116        C123   1.265       .  A
O117        V120   1.895   1_554  S
O117        C122   1.264       .  A
O118        V120   1.893       .  S
O118        C121   1.264       .  A
V119        V120   2.087   1_554  T
C121       C2788   1.481       .  S
C122       C3092   1.480       .  S
C123       C2590   1.478       .  S
C124       C2876   1.479       .  S
O125        V133   1.912       .  S
O125        C135   1.266       .  A
O126        V133   1.909   1_554  S
O126        C136   1.266       .  A
O127        V133   1.902   1_554  S
O127        C137   1.263       .  A
O128        V133   1.906       .  S
O128        C138   1.264       .  A
O129        V134   1.898       .  S
O129        C138   1.265       .  A
O130        V134   1.897   1_554  S
O130        C137   1.265       .  A
O131        V134   1.891   1_554  S
O131        C136   1.263       .  A
O132        V134   1.891       .  S
O132        C135   1.264       .  A
V133        V134   2.087       .  T
C135       C2644   1.480       .  S
C136       C3056   1.478       .  S
C137       C2914   1.475       .  S
C138       C2554   1.480       .  S
O139        V147   1.895   1_556  S
O139        C149   1.265       .  A
O140        V147   1.901       .  S
O140        C150   1.265       .  A
O141        V147   1.889       .  S
O141        C151   1.264       .  A
O142        V147   1.892   1_556  S
O142        C152   1.263       .  A
O143        V148   1.909   1_556  S
O143        C152   1.266       .  A
O144        V148   1.913       .  S
O144        C151   1.266       .  A
O145        V148   1.903       .  S
O145        C150   1.264       .  A
O146        V148   1.907   1_556  S
O146        C149   1.265       .  A
V147        V148   2.086       .  T
C149       C2626   1.478       .  S
C150       C2984   1.478       .  S
C151       C2932   1.482       .  S
C152       C2698   1.473       .  S
O153        V161   1.909       .  S
O153        C163   1.266       .  A
O154        V161   1.913   1_554  S
O154        C164   1.266       .  A
O155        V161   1.906   1_554  S
O155        C165   1.265       .  A
O156        V161   1.905       .  S
O156        C166   1.264       .  A
O157        V162   1.905       .  S
O157        C166   1.267       .  A
O158        V162   1.904   1_554  S
O158        C165   1.266       .  A
O159        V162   1.895   1_554  S
O159        C164   1.264       .  A
O160        V162   1.902       .  S
O160        C163   1.265       .  A
V161        V162   2.087       .  T
C163       C2804   1.484       .  S
C164       C3022   1.481       .  S
C165       C2858   1.482       .  S
C166       C2734   1.482       .  S
O167        V175   1.903       .  S
O167        C177   1.266       .  A
O168        V175   1.903       .  S
O168        C178   1.266       .  A
O169        V175   1.892       .  S
O169        C179   1.264       .  A
O170        V175   1.890       .  S
O170        C180   1.263       .  A
O171        V176   1.913       .  S
O171        C180   1.267       .  A
O172        V176   1.911       .  S
O172        C179   1.266       .  A
O173        V176   1.904       .  S
O173        C178   1.264       .  A
O174        V176   1.906       .  S
O174        C177   1.264       .  A
V175        V176   2.086       .  T
C177       C2572   1.481       .  S
C178       C2714   1.480       .  S
C179       C2662   1.482       .  S
C180       C2770   1.481       .  S
C181        C182   1.539       .  S
C181        C187   1.538       .  S
C181        C185   1.543       .  S
C181       C2534   1.513       .  S
C182        H189   1.086       .  S
C182        C183   1.363       .  D
C183        C184   1.536       .  S
C183       C2480   1.481       .  S
C184        C188   1.535       .  S
C184        C186   1.534       .  S
C184        H190   1.111       .  S
C185        H191   1.085       .  S
C185        C186   1.371       .  D
C186       C2516   1.485       .  S
C187        H192   1.084       .  S
C187        C188   1.368       .  D
C188       C2498   1.483       .  S
C193        C194   1.544       .  S
C193        C199   1.544       .  S
C193        C197   1.541       .  S
C193       C2464   1.516       .  S
C194        H201   1.086       .  S
C194        C195   1.367       .  D
C195        C196   1.538       .  S
C195       C2426   1.489       .  S
C196        C200   1.529       .  S
C196        C198   1.533       .  S
C196        H202   1.110       .  S
C197        H203   1.085       .  S
C197        C198   1.369       .  D
C198       C2408   1.482       .  S
C199        H204   1.084       .  S
C199        C200   1.367       .  D
C200       C2446   1.485       .  S
C205        C206   1.542       .  S
C205        C211   1.539       .  S
C205        C209   1.547       .  S
C205       C2392   1.515       .  S
C206        H213   1.086       .  S
C206        C207   1.358       .  D
C207        C208   1.530       .  S
C207       C2338   1.477       .  S
C208        C212   1.537       .  S
C208        C210   1.531       .  S
C208        H214   1.112       .  S
C209        H215   1.085       .  S
C209        C210   1.372       .  D
C210       C2354   1.482       .  S
C211        H216   1.084       .  S
C211        C212   1.371       .  D
C212       C2374   1.485       .  S
C217        C218   1.540       .  S
C217        C223   1.544       .  S
C217        C221   1.543       .  S
C217       C2318   1.514       .  S
C218        H225   1.086       .  S
C218        C219   1.365       .  D
C219        C220   1.538       .  S
C219       C2266   1.488       .  S
C220        C224   1.532       .  S
C220        C222   1.530       .  S
C220        H226   1.109       .  S
C221        H227   1.085       .  S
C221        C222   1.367       .  D
C222       C2300   1.482       .  S
C223        H228   1.085       .  S
C223        C224   1.369       .  D
C224       C2282   1.480       .  S
O229        V237   1.897       .  S
O229        C239   1.265       .  A
O230        V237   1.895       .  S
O230        C240   1.264       .  A
O231        V237   1.900       .  S
O231        C241   1.265       .  A
O232        V237   1.897       .  S
O232        C242   1.265       .  A
O233        V238   1.908       .  S
O233        C242   1.265       .  A
O234        V238   1.907       .  S
O234        C241   1.265       .  A
O235        V238   1.909       .  S
O235        C240   1.265       .  A
O236        V238   1.907       .  S
O236        C239   1.265       .  A
V237        V238   2.085       .  T
C239       C2264   1.479       .  S
C240       C2518   1.478       .  S
C241       C2356   1.480       .  S
C242       C2428   1.480       .  S
C243        C244   1.545       .  S
C243        C249   1.542       .  S
C243        C247   1.542       .  S
C243       C2246   1.515       .  S
C244        H251   1.085       .  S
C244        C245   1.367       .  D
C245        C246   1.529       .  S
C245       C2210   1.486       .  S
C246        C250   1.538       .  S
C246        C248   1.535       .  S
C246        H252   1.109       .  S
C247        H253   1.085       .  S
C247        C248   1.371       .  D
C248       C2230   1.484       .  S
C249        H254   1.086       .  S
C249        C250   1.365       .  D
C250       C2192   1.488       .  S
C255        C256   1.542       .  S
C255        C261   1.545       .  S
C255        C259   1.541       .  S
C255       C2174   1.516       .  S
C256        H263   1.086       .  S
C256        C257   1.365       .  D
C257        C258   1.538       .  S
C257       C2120   1.488       .  S
C258        C262   1.531       .  S
C258        C260   1.533       .  S
C258        H264   1.110       .  S
C259        H265   1.085       .  S
C259        C260   1.367       .  D
C260       C2156   1.485       .  S
C261        H266   1.085       .  S
C261        C262   1.370       .  D
C262       C2138   1.482       .  S
C267        C268   1.549       .  S
C267        C273   1.547       .  S
C267        C271   1.548       .  S
C267       C2102   1.523       .  S
C268        H275   1.085       .  S
C268        C269   1.372       .  D
C269        C270   1.528       .  S
C269       C2048   1.483       .  S
C270        C274   1.529       .  S
C270        C272   1.527       .  S
C270        H276   1.112       .  S
C271        H277   1.085       .  S
C271        C272   1.367       .  D
C272       C2086   1.486       .  S
C273        H278   1.085       .  S
C273        C274   1.369       .  D
C274       C2066   1.483       .  S
C279        C280   1.536       .  S
C279        C285   1.545       .  S
C279        C283   1.541       .  S
C279       C2030   1.514       .  S
C280        H287   1.084       .  S
C280        C281   1.366       .  D
C281        C282   1.535       .  S
C281       C1994   1.483       .  S
C282        C286   1.534       .  S
C282        C284   1.534       .  S
C282        H288   1.112       .  S
C283        H289   1.086       .  S
C283        C284   1.363       .  D
C284       C1976   1.478       .  S
C285        H290   1.085       .  S
C285        C286   1.371       .  D
C286       C2012   1.487       .  S
O291        V299   1.894       .  S
O291        C301   1.265       .  A
O292        V299   1.889   1_565  S
O292        C302   1.263       .  A
O293        V299   1.891       .  S
O293        C303   1.262       .  A
O294        V299   1.889   1_565  S
O294        C304   1.263       .  A
O295        V300   1.914   1_565  S
O295        C304   1.267       .  A
O296        V300   1.914       .  S
O296        C303   1.267       .  A
O297        V300   1.908   1_565  S
O297        C302   1.265       .  A
O298        V300   1.904       .  S
O298        C301   1.264       .  A
V299        V300   2.085       .  T
C301       C2410   1.476       .  S
C302       C1996   1.476       .  S
C303       C2482   1.476       .  S
C304       C2194   1.482       .  S
O305        V313   1.906   1_545  S
O305        C315   1.265       .  A
O306        V313   1.906       .  S
O306        C316   1.265       .  A
O307        V313   1.899   1_545  S
O307        C317   1.263       .  A
O308        V313   1.901       .  S
O308        C318   1.264       .  A
O309        V314   1.900       .  S
O309        C318   1.266       .  A
O310        V314   1.898   1_545  S
O310        C317   1.265       .  A
O311        V314   1.899       .  S
O311        C316   1.265       .  A
O312        V314   1.898   1_545  S
O312        C315   1.264       .  A
V313        V314   2.086       .  T
C315       C2336   1.474       .  S
C316       C1978   1.475       .  S
C317       C2500   1.473       .  S
C318       C2050   1.477       .  S
O319        V327   1.902   1_565  S
O319        C329   1.264       .  A
O320        V327   1.901       .  S
O320        C330   1.263       .  A
O321        V327   1.910   1_565  S
O321        C331   1.266       .  A
O322        V327   1.908       .  S
O322        C332   1.266       .  A
O323        V328   1.893       .  S
O323        C332   1.264       .  A
O324        V328   1.893   1_565  S
O324        C331   1.264       .  A
O325        V328   1.899       .  S
O325        C330   1.266       .  A
O326        V328   1.902   1_565  S
O326        C329   1.266       .  A
V327        V328   2.086       .  T
C329       C2084   1.478       .  S
C330       C2284   1.476       .  S
C331       C2158   1.479       .  S
C332       C2372   1.478       .  S
O333        V341   1.907       .  S
O333        C343   1.265       .  A
O334        V341   1.907   1_545  S
O334        C344   1.265       .  A
O335        V341   1.906   1_545  S
O335        C345   1.265       .  A
O336        V341   1.907       .  S
O336        C346   1.265       .  A
O337        V342   1.893       .  S
O337        C346   1.264       .  A
O338        V342   1.894   1_545  S
O338        C345   1.264       .  A
O339        V342   1.896   1_545  S
O339        C344   1.264       .  A
O340        V342   1.896       .  S
O340        C343   1.265       .  A
V341        V342   2.087       .  T
C343       C2228   1.480       .  S
C344       C2302   1.479       .  S
C345       C2444   1.477       .  S
C346       C2140   1.478       .  S
O347        V355   1.913       .  S
O347        C357   1.267       .  A
O348        V355   1.912       .  S
O348        C358   1.266       .  A
O349        V355   1.905       .  S
O349        C359   1.264       .  A
O350        V355   1.901       .  S
O350        C360   1.264       .  A
O351        V356   1.903       .  S
O351        C360   1.266       .  A
O352        V356   1.902       .  S
O352        C359   1.266       .  A
O353        V356   1.894       .  S
O353        C358   1.264       .  A
O354        V356   1.893       .  S
O354        C357   1.264       .  A
V355        V356   2.086       .  T
C357       C2122   1.481       .  S
C358       C2014   1.482       .  S
C359       C2068   1.481       .  S
C360       C2212   1.477       .  S
C361        C362   1.546       .  S
C361        C367   1.542       .  S
C361        C365   1.549       .  S
C361       C1960   1.518       .  S
C362        H369   1.085       .  S
C362        C363   1.367       .  D
C363        C364   1.527       .  S
C363       C1940   1.484       .  S
C364        C368   1.528       .  S
C364        C366   1.529       .  S
C364        H370   1.112       .  S
C365        H371   1.085       .  S
C365        C366   1.372       .  D
C366       C1904   1.485       .  S
C367        H372   1.085       .  S
C367        C368   1.366       .  D
C368       C1924   1.478       .  S
C373        C374   1.542       .  S
C373        C379   1.544       .  S
C373        C377   1.545       .  S
C373       C1886   1.519       .  S
C374        H381   1.086       .  S
C374        C375   1.365       .  D
C375        C376   1.539       .  S
C375       C1870   1.487       .  S
C376        C380   1.532       .  S
C376        C378   1.536       .  S
C376        H382   1.110       .  S
C377        H383   1.085       .  S
C377        C378   1.373       .  D
C378       C1850   1.489       .  S
C379        H384   1.084       .  S
C379        C380   1.367       .  D
C380       C1832   1.491       .  S
C385        C386   1.543       .  S
C385        C391   1.541       .  S
C385        C389   1.537       .  S
C385       C1814   1.514       .  S
C386        H393   1.086       .  S
C386        C387   1.367       .  D
C387        C388   1.535       .  S
C387       C1796   1.480       .  S
C388        C392   1.538       .  S
C388        C390   1.533       .  S
C388        H394   1.107       .  S
C389        H395   1.085       .  S
C389        C390   1.366       .  D
C390       C1778   1.481       .  S
C391        H396   1.086       .  S
C391        C392   1.366       .  D
C392       C1760   1.488       .  S
C397        C398   1.541       .  S
C397        C403   1.541       .  S
C397        C401   1.540       .  S
C397       C1742   1.515       .  S
C398        H405   1.084       .  S
C398        C399   1.372       .  D
C399        C400   1.539       .  S
C399       C1724   1.489       .  S
C400        C404   1.532       .  S
C400        C402   1.537       .  S
C400        H406   1.111       .  S
C401        H407   1.086       .  S
C401        C402   1.365       .  D
C402       C1706   1.481       .  S
C403        H408   1.084       .  S
C403        C404   1.366       .  D
C404       C1690   1.487       .  S
O409        V417   1.903   1_655  S
O409        C419   1.264       .  A
O410        V417   1.910       .  S
O410        C420   1.265       .  A
O411        V417   1.905       .  S
O411        C421   1.265       .  A
O412        V417   1.908   1_655  S
O412        C422   1.265       .  A
O413        V418   1.893   1_655  S
O413        C422   1.264       .  A
O414        V418   1.895       .  S
O414        C421   1.264       .  A
O415        V418   1.892       .  S
O415        C420   1.264       .  A
O416        V418   1.898   1_655  S
O416        C419   1.265       .  A
V417        V418   2.086       .  T
C419       C1762   1.477       .  S
C420       C1654   1.479       .  S
C421       C1672   1.472       .  S
C422       C1688   1.478       .  S
O423        V431   1.903   1_655  S
O423        C433   1.264       .  A
O424        V431   1.896       .  S
O424        C434   1.262       .  A
O425        V431   1.913   1_655  S
O425        C435   1.266       .  A
O426        V431   1.914       .  S
O426        C436   1.267       .  A
O427        V432   1.889       .  S
O427        C436   1.261       .  A
O428        V432   1.895   1_655  S
O428        C435   1.263       .  A
O429        V432   1.908       .  S
O429        C434   1.267       .  A
O430        V432   1.903   1_655  S
O430        C433   1.266       .  A
V431        V432   2.086       .  T
C433       C1906   1.479       .  S
C434       C1616   1.477       .  S
C435       C1708   1.478       .  S
C436       C1634   1.473       .  S
O437        V445   1.896   1_655  S
O437        C447   1.262       .  A
O438        V445   1.899       .  S
O438        C448   1.263       .  A
O439        V445   1.920   1_655  S
O439        C449   1.268       .  A
O440        V445   1.917       .  S
O440        C450   1.268       .  A
O441        V446   1.889       .  S
O441        C450   1.261       .  A
O442        V446   1.884   1_655  S
O442        C449   1.262       .  A
O443        V446   1.908       .  S
O443        C448   1.267       .  A
O444        V446   1.909   1_655  S
O444        C447   1.267       .  A
V445        V446   2.087       .  T
C447       C1798   1.473       .  S
C448       C1582   1.479       .  S
C449       C1868   1.485       .  S
C450       C1600   1.475       .  S
O451        V459   1.903   1_655  S
O451        C461   1.264       .  A
O452        V459   1.904       .  S
O452        C462   1.264       .  A
O453        V459   1.914       .  S
O453        C463   1.267       .  A
O454        V459   1.912   1_655  S
O454        C464   1.267       .  A
O455        V460   1.898   1_655  S
O455        C464   1.264       .  A
O456        V460   1.896       .  S
O456        C463   1.264       .  A
O457        V460   1.898       .  S
O457        C462   1.265       .  A
O458        V460   1.899   1_655  S
O458        C461   1.265       .  A
V459        V460   2.085       .  T
C461       C1942   1.477       .  S
C462       C1544   1.476       .  S
C463       C1562   1.486       .  S
C464       C1852   1.483       .  S
O465        V473   1.913       .  S
O465        C475   1.267       .  A
O466        V473   1.915       .  S
O466        C476   1.267       .  A
O467        V473   1.898       .  S
O467        C477   1.262       .  A
O468        V473   1.899       .  S
O468        C478   1.262       .  A
O469        V474   1.896       .  S
O469        C478   1.265       .  A
O470        V474   1.896       .  S
O470        C477   1.265       .  A
O471        V474   1.892       .  S
O471        C476   1.263       .  A
O472        V474   1.895       .  S
O472        C475   1.264       .  A
V473        V474   2.087       .  T
C475       C1834   1.484       .  S
C476       C1726   1.484       .  S
C477       C1780   1.473       .  S
C478       C1922   1.473       .  S
C479        C480   1.544       .  S
C479        C485   1.541       .  S
C479        C483   1.541       .  S
C479       C1528   1.517       .  S
C480        H487   1.085       .  S
C480        C481   1.370       .  D
C481        C482   1.534       .  S
C481       C1564   1.488       .  S
C482        C486   1.538       .  S
C482        C484   1.535       .  S
C482        H488   1.110       .  S
C483        H489   1.084       .  S
C483        C484   1.370       .  D
C484       C1508   1.486       .  S
C485        H490   1.086       .  S
C485        C486   1.362       .  D
C486       C1636   1.485       .  S
C491        C492   1.540       .  S
C491        C497   1.537       .  S
C491        C495   1.537       .  S
C491       C1490   1.513       .  S
C492        H499   1.086       .  S
C492        C493   1.368       .  D
C493        C494   1.543       .  S
C493       C1598   1.490       .  S
C494        C498   1.534       .  S
C494        C496   1.539       .  S
C494        H500   1.107       .  S
C495        H501   1.086       .  S
C495        C496   1.363       .  D
C496       C1670   1.479       .  S
C497        H502   1.084       .  S
C497        C498   1.368       .  D
C498       C1472   1.486       .  S
C503        C504   1.545       .  S
C503        C509   1.547       .  S
C503        C507   1.547       .  S
C503       C1456   1.518       .  S
C504        H511   1.085       .  S
C504        C505   1.369       .  D
C505        C506   1.530       .  S
C505       C1436   1.482       .  S
C506        C510   1.528       .  S
C506        C508   1.529       .  S
C506        H512   1.112       .  S
C507        H513   1.085       .  S
C507        C508   1.368       .  D
C508       C1652   1.481       .  S
C509        H514   1.084       .  S
C509        C510   1.369       .  D
C510       C1618   1.486       .  S
C515        C516   1.542       .  S
C515        C521   1.540       .  S
C515        C519   1.547       .  S
C515       C1418   1.517       .  S
C516        H523   1.085       .  S
C516        C517   1.369       .  D
C517        C518   1.534       .  S
C517       C1546   1.484       .  S
C518        C522   1.538       .  S
C518        C520   1.530       .  S
C518        H524   1.110       .  S
C519        H525   1.085       .  S
C519        C520   1.370       .  D
C520       C1580   1.487       .  S
C521        H526   1.086       .  S
C521        C522   1.363       .  D
C522       C1400   1.485       .  S
O527        V535   1.900       .  S
O527        C537   1.264       .  A
O528        V535   1.903       .  S
O528        C538   1.264       .  A
O529        V535   1.914       .  S
O529        C539   1.267       .  A
O530        V535   1.914       .  S
O530        C540   1.267       .  A
O531        V536   1.889       .  S
O531        C540   1.263       .  A
O532        V536   1.888       .  S
O532        C539   1.261       .  A
O533        V536   1.898       .  S
O533        C538   1.265       .  A
O534        V536   1.897       .  S
O534        C537   1.264       .  A
V535        V536   2.087       .  T
C537       C1474   1.473       .  S
C538       C1510   1.478       .  S
C539       C1402   1.473       .  S
C540       C1438   1.480       .  S
C541        C542   1.527       .  S
C541        C547   1.531       .  S
C541        C545   1.530       .  S
C541       C1382   1.508       .  S
C542        H549   1.086       .  S
C542        C543   1.366       .  D
C543        C544   1.547       .  S
C543       C2894   1.492       .  S
C544        C548   1.550       .  S
C544        C546   1.548       .  S
C544        H550   1.110       .  S
C545        H551   1.087       .  S
C545        C546   1.364       .  D
C546       C2320   1.484       .  S
C547        H552   1.084       .  S
C547        C548   1.371       .  D
C548       C1420   1.494       .  S
C553        C554   1.538       .  S
C553        C559   1.533       .  S
C553        C557   1.534       .  S
C553       C3038   1.518       .  S
C554        H561   1.084       .  S
C554        C555   1.375       .  D
C555        C556   1.544       .  S
C555       C1888   1.496       .  S
C556        C560   1.541       .  S
C556        C558   1.543       .  S
C556        H562   1.111       .  S
C557        H563   1.084       .  S
C557        C558   1.371       .  D
C558       C1366   1.491       .  S
C559        H564   1.085       .  S
C559        C560   1.365       .  D
C560       C2462   1.493       .  S
C565        C566   1.529       .  S
C565        C571   1.531       .  S
C565        C569   1.534       .  S
C565       C3112   1.513       .  S
C566        H573   1.086       .  S
C566        C567   1.366       .  D
C567        C568   1.541       .  S
C567       C1492   1.485       .  S
C568        C572   1.550       .  S
C568        C570   1.543       .  S
C568        H574   1.108       .  S
C569        H575   1.083       .  S
C569        C570   1.373       .  D
C570       C1348   1.492       .  S
C571        H576   1.087       .  S
C571        C572   1.367       .  D
C572       C2176   1.490       .  S
C577        C578   1.535       .  S
C577        C583   1.530       .  S
C577        C581   1.528       .  S
C577       C1328   1.518       .  S
C578        H585   1.084       .  S
C578        C579   1.376       .  D
C579        C580   1.546       .  S
C579       C2390   1.494       .  S
C580        C584   1.551       .  S
C580        C582   1.546       .  S
C580        H586   1.109       .  S
C581        H587   1.086       .  S
C581        C582   1.366       .  D
C582       C2824   1.495       .  S
C583        H588   1.087       .  S
C583        C584   1.366       .  D
C584       C1526   1.488       .  S
C589        C590   1.531       .  S
C589        C595   1.533       .  S
C589        C593   1.534       .  S
C589       C1310   1.518       .  S
C590        H597   1.085       .  S
C590        C591   1.368       .  D
C591        C592   1.546       .  S
C591       C1958   1.496       .  S
C592        C596   1.543       .  S
C592        C594   1.549       .  S
C592        H598   1.111       .  S
C593        H599   1.084       .  S
C593        C594   1.375       .  D
C594       C2752   1.500       .  S
C595        H600   1.085       .  S
C595        C596   1.369       .  D
C596       C2536   1.490       .  S
C601        C602   1.531       .  S
C601        C607   1.534       .  S
C601        C605   1.530       .  S
C601       C1816   1.514       .  S
C602        H609   1.084       .  S
C602        C603   1.374       .  D
C603        C604   1.549       .  S
C603       C2248   1.495       .  S
C604        C608   1.540       .  S
C604        C606   1.547       .  S
C604        H610   1.110       .  S
C605        H611   1.087       .  S
C605        C606   1.364       .  D
C606       C2968   1.485       .  S
C607        H612   1.086       .  S
C607        C608   1.367       .  D
C608       C1294   1.486       .  S
C613        C614   1.532       .  S
C613        C619   1.535       .  S
C613        C617   1.535       .  S
C613       C1274   1.519       .  S
C614        H621   1.085       .  S
C614        C615   1.366       .  D
C615        C616   1.546       .  S
C615       C1454   1.496       .  S
C616        C620   1.551       .  S
C616        C618   1.548       .  S
C616        H622   1.111       .  S
C617        H623   1.084       .  S
C617        C618   1.373       .  D
C618       C2608   1.498       .  S
C619        H624   1.083       .  S
C619        C620   1.374       .  D
C620       C2104   1.504       .  S
C625        C626   1.543       .  S
C625        C631   1.543       .  S
C625        C629   1.539       .  S
C625       C1384   1.506       .  S
C626        H633   1.085       .  S
C626        C627   1.369       .  D
C627        C628   1.530       .  S
C627       C1256   1.478       .  S
C628        C632   1.529       .  S
C628        C630   1.529       .  S
C628        H634   1.112       .  S
C629        H635   1.085       .  S
C629        C630   1.363       .  D
C630       C1240   1.476       .  S
C631        H636   1.086       .  S
C631        C632   1.366       .  D
C632       C1220   1.476       .  S
C637        C638   1.538       .  S
C637        C643   1.544       .  S
C637        C641   1.540       .  S
C637       C1330   1.516       .  S
C638        H645   1.086       .  S
C638        C639   1.363       .  D
C639        C640   1.536       .  S
C639       C1186   1.479       .  S
C640        C644   1.529       .  S
C640        C642   1.542       .  S
C640        H646   1.109       .  S
C641        H647   1.086       .  S
C641        C642   1.367       .  D
C642       C1166   1.486       .  S
C643        H648   1.084       .  S
C643        C644   1.369       .  D
C644       C1202   1.484       .  S
C649        C650   1.541       .  S
C649        C655   1.535       .  S
C649        C653   1.539       .  S
C649       C1364   1.513       .  S
C650        H657   1.085       .  S
C650        C651   1.369       .  D
C651        C652   1.534       .  S
C651       C1148   1.482       .  S
C652        C656   1.542       .  S
C652        C654   1.541       .  S
C652        H658   1.107       .  S
C653        H659   1.086       .  S
C653        C654   1.365       .  D
C654       C1132   1.487       .  S
C655        H660   1.086       .  S
C655        C656   1.362       .  D
C656       C1112   1.484       .  S
C661        C662   1.542       .  S
C661        C667   1.540       .  S
C661        C665   1.541       .  S
C661       C1346   1.512       .  S
C662        H669   1.085       .  S
C662        C663   1.368       .  D
C663        C664   1.532       .  S
C663       C1058   1.481       .  S
C664        C668   1.536       .  S
C664        C666   1.537       .  S
C664        H670   1.111       .  S
C665        H671   1.086       .  S
C665        C666   1.364       .  D
C666       C1076   1.483       .  S
C667        H672   1.084       .  S
C667        C668   1.367       .  D
C668       C1096   1.485       .  S
C673        C674   1.537       .  S
C673        C679   1.539       .  S
C673        C677   1.544       .  S
C673       C1292   1.516       .  S
C674        H681   1.087       .  S
C674        C675   1.361       .  D
C675        C676   1.541       .  S
C675       C1004   1.487       .  S
C676        C680   1.538       .  S
C676        C678   1.537       .  S
C676        H682   1.106       .  S
C677        H683   1.085       .  S
C677        C678   1.372       .  D
C678       C1024   1.488       .  S
C679        H684   1.086       .  S
C679        C680   1.366       .  D
C680       C1040   1.482       .  S
O685        V693   1.886   1_645  S
O685        C695   1.260       .  A
O686        V693   1.889       .  S
O686        C696   1.261       .  A
O687        V693   1.895   1_655  S
O687        C697   1.262       .  A
O688        V693   1.888   1_545  S
O688        C698   1.264       .  A
O689        V694   1.903   1_445  S
O689        C698   1.263       .  A
O690        V694   1.901       .  S
O690        C697   1.266       .  A
O691        V694   1.916   1_455  S
O691        C696   1.268       .  A
O692        V694   1.918   1_545  S
O692        C695   1.268       .  A
V693        V694   2.086   1_455  T
C695       C1130   1.473       .  S
C696       C1078   1.473       .  S
C697       C1006   1.473       .  S
C698       C1238   1.471       .  S
C699        C700   1.537       .  S
C699        C705   1.539       .  S
C699        C703   1.541       .  S
C699       C1276   1.518       .  S
C700        H707   1.087       .  S
C700        C701   1.365       .  D
C701        C702   1.543       .  S
C701        C950   1.488       .  S
C702        C706   1.538       .  S
C702        C704   1.542       .  S
C702        H708   1.104       .  S
C703        H709   1.086       .  S
C703        C704   1.368       .  D
C704        C988   1.490       .  S
C705        H710   1.086       .  S
C705        C706   1.365       .  D
C706        C968   1.482       .  S
O711        V719   1.893       .  S
O711        C721   1.264       .  A
O712        V719   1.896   1_545  S
O712        C722   1.263   1_554  A
O713        V719   1.897       .  S
O713        C723   1.263   1_554  A
O714        V719   1.891   1_545  S
O714        C724   1.264       .  A
O715        V720   1.906   1_545  S
O715        C724   1.264       .  A
O716        V720   1.901   1_556  S
O716        C723   1.265       .  A
O717        V720   1.904   1_546  S
O717        C722   1.266       .  A
O718        V720   1.908       .  S
O718        C721   1.265       .  A
V719        V720   2.088       .  T
C721       C1060   1.477       .  S
C722       C1168   1.474       .  S
C723        C952   1.474       .  S
C724       C1222   1.475       .  S
C725        C726   1.541       .  S
C725        C731   1.540       .  S
C725        C729   1.541       .  S
C725       C1312   1.517       .  S
C726        H733   1.086       .  S
C726        C727   1.367       .  D
C727        C728   1.542       .  S
C727        C932   1.489       .  S
C728        C732   1.535       .  S
C728        C730   1.540       .  S
C728        H734   1.106       .  S
C729        H735   1.086       .  S
C729        C730   1.365       .  D
C730        C914   1.489       .  S
C731        H736   1.085       .  S
C731        C732   1.368       .  D
C732        C896   1.486       .  S
O737        V745   1.894   1_556  S
O737        C747   1.262       .  A
O738        V745   1.897   1_455  S
O738        C748   1.262       .  A
O739        V745   1.915   1_456  S
O739        C749   1.267       .  A
O740        V745   1.911       .  S
O740        C750   1.267       .  A
O741        V746   1.887   1_654  S
O741        C750   1.260       .  A
O742        V746   1.885       .  S
O742        C749   1.261       .  A
O743        V746   1.903   1_554  S
O743        C748   1.266       .  A
O744        V746   1.910   1_655  S
O744        C747   1.268       .  A
V745        V746   2.088   1_654  T
C747        C898   1.477       .  S
C748       C1258   1.474       .  S
C749       C1184   1.471       .  S
C750       C1114   1.471       .  S
C751        C752   1.536       .  S
C751        C757   1.541       .  S
C751        C755   1.541       .  S
C751        C878   1.510       .  S
C752        H759   1.086       .  S
C752        C753   1.363       .  D
C753        C754   1.541       .  S
C753        C860   1.484       .  S
C754        C758   1.529       .  S
C754        C756   1.537       .  S
C754        H760   1.107       .  S
C755        H761   1.086       .  S
C755        C756   1.365       .  D
C756        C842   1.482       .  S
C757        H762   1.084       .  S
C757        C758   1.368       .  D
C758        C824   1.481       .  S
O763        V771   1.912       .  S
O763        C773   1.267       .  A
O764        V771   1.908   1_654  S
O764        C774   1.265       .  A
O765        V771   1.909   1_655  S
O765        C775   1.266       .  A
O766        V771   1.915   1_554  S
O766        C776   1.267       .  A
O767        V772   1.887       .  S
O767        C776   1.263       .  A
O768        V772   1.891   1_656  S
O768        C775   1.262       .  A
O769        V772   1.899   1_655  S
O769        C774   1.264       .  A
O770        V772   1.897   1_556  S
O770        C773   1.263       .  A
V771        V772   2.087   1_556  T
C773        C986   1.478       .  S
C774       C1042   1.476       .  S
C775        C844   1.472       .  S
C776       C1094   1.482       .  S
O777        V785   1.914   1_545  S
O777        C787   1.268       .  A
O778        V785   1.916   1_554  S
O778        C788   1.267       .  A
O779        V785   1.897   1_544  S
O779        C789   1.262       .  A
O780        V785   1.893       .  S
O780        C790   1.261       .  A
O781        V786   1.899   1_556  S
O781        C790   1.265       .  A
O782        V786   1.899   1_545  S
O782        C789   1.266       .  A
O783        V786   1.893       .  S
O783        C788   1.264       .  A
O784        V786   1.892   1_546  S
O784        C787   1.262       .  A
V785        V786   2.088   1_556  T
C787        C916   1.476       .  S
C788       C1022   1.485       .  S
C789       C1150   1.474       .  S
C790        C826   1.469       .  S
O791        V799   1.891   1_655  S
O791        C801   1.262       .  A
O792        V799   1.889   1_545  S
O792        C802   1.263       .  A
O793        V799   1.893   1_645  S
O793        C803   1.262       .  A
O794        V799   1.897       .  S
O794        C804   1.264       .  A
O795        V800   1.910   1_455  S
O795        C804   1.266       .  A
O796        V800   1.912   1_545  S
O796        C803   1.267       .  A
O797        V800   1.908   1_445  S
O797        C802   1.265       .  A
O798        V800   1.904       .  S
O798        C801   1.265       .  A
V799        V800   2.087   1_455  T
C801        C862   1.469       .  S
C802       C1204   1.476       .  S
C803        C934   1.475       .  S
C804        C970   1.478       .  S
C805        C806   1.532       .  S
C805        C811   1.532       .  S
C805        C809   1.537       .  S
C805       C2032   1.513       .  S
C806        H813   1.084       .  S
C806        C807   1.370       .  D
C807        C808   1.541       .  S
C807        C880   1.487       .  S
C808        C812   1.538       .  S
C808        C810   1.540       .  S
C808        H814   1.111       .  S
C809        H815   1.084       .  S
C809        C810   1.374       .  D
C810       C1744   1.490       .  S
C811        H816   1.084       .  S
C811        C812   1.367       .  D
C812       C2680   1.490       .  S
C817        C825   1.482       .  S
C817        C818   1.401       .  A
C817        C822   1.409       .  A
C818        C819   1.396       .  A
C818        H827   1.084       .  S
C819        C820   1.408       .  A
C819        H828   1.082       .  S
C820        C823   1.481       .  S
C820        C821   1.400       .  A
C821        C822   1.396       .  A
C821        H829   1.083       .  S
C822        H830   1.081       .  S
C823        H831   1.084       .  S
C823        C824   1.342       .  D
C824        H832   1.085       .  S
C825        H833   1.087       .  S
C825        C826   1.342       .  D
C826        H834   1.085       .  S
C835        C843   1.486       .  S
C835        C836   1.404       .  A
C835        C840   1.406       .  A
C836        C837   1.402       .  A
C836        H845   1.083       .  S
C837        C838   1.408       .  A
C837        H846   1.081       .  S
C838        C841   1.484       .  S
C838        C839   1.403       .  A
C839        C840   1.394       .  A
C839        H847   1.084       .  S
C840        H848   1.082       .  S
C841        H849   1.087       .  S
C841        C842   1.346       .  D
C842        H850   1.084       .  S
C843        H851   1.087       .  S
C843        C844   1.345       .  D
C844        H852   1.086       .  S
C853        C861   1.482       .  S
C853        C854   1.402       .  A
C853        C858   1.405       .  A
C854        C855   1.401       .  A
C854        H863   1.083       .  S
C855        C856   1.411       .  A
C855        H864   1.080       .  S
C856        C859   1.486       .  S
C856        C857   1.403       .  A
C857        C858   1.393       .  A
C857        H865   1.084       .  S
C858        H866   1.083       .  S
C859        H867   1.085       .  S
C859        C860   1.344       .  D
C860        H868   1.084       .  S
C861        H869   1.087       .  S
C861        C862   1.344       .  D
C862        H870   1.086       .  S
C871        C879   1.486       .  S
C871        C872   1.402       .  A
C871        C876   1.407       .  A
C872        C873   1.397       .  A
C872        H881   1.083       .  S
C873        C874   1.409       .  A
C873        H882   1.080       .  S
C874        C877   1.489       .  S
C874        C875   1.404       .  A
C875        C876   1.399       .  A
C875        H883   1.083       .  S
C876        H884   1.082       .  S
C877        H885   1.087       .  S
C877        C878   1.346       .  D
C878        H886   1.083       .  S
C879        H887   1.085       .  S
C879        C880   1.347       .  D
C880        H888   1.084       .  S
C889        C897   1.493       .  S
C889        C890   1.403       .  A
C889        C894   1.411       .  A
C890        C891   1.397       .  A
C890        H899   1.084       .  S
C891        C892   1.409       .  A
C891        H900   1.080       .  S
C892        C895   1.492       .  S
C892        C893   1.403       .  A
C893        C894   1.401       .  A
C893        H901   1.084       .  S
C894        H902   1.079       .  S
C895        H903   1.085       .  S
C895        C896   1.347       .  D
C896        H904   1.083       .  S
C897        H905   1.087       .  S
C897        C898   1.345       .  D
C898        H906   1.083       .  S
C907        C915   1.489       .  S
C907        C908   1.404       .  A
C907        C912   1.406       .  A
C908        C909   1.403       .  A
C908        H917   1.083       .  S
C909        C910   1.410       .  A
C909        H918   1.080       .  S
C910        C913   1.491       .  S
C910        C911   1.405       .  A
C911        C912   1.396       .  A
C911        H919   1.084       .  S
C912        H920   1.082       .  S
C913        H921   1.083       .  S
C913        C914   1.348       .  D
C914        H922   1.083       .  S
C915        H923   1.087       .  S
C915        C916   1.345       .  D
C916        H924   1.086       .  S
C925        C933   1.490       .  S
C925        C926   1.405       .  A
C925        C930   1.406       .  A
C926        C927   1.404       .  A
C926        H935   1.083       .  S
C927        C928   1.410       .  A
C927        H936   1.080       .  S
C928        C931   1.489       .  S
C928        C929   1.403       .  A
C929        C930   1.394       .  A
C929        H937   1.084       .  S
C930        H938   1.082       .  S
C931        H939   1.083       .  S
C931        C932   1.347       .  D
C932        H940   1.084       .  S
C933        H941   1.087       .  S
C933        C934   1.347       .  D
C934        H942   1.085       .  S
C943        C951   1.484       .  S
C943        C944   1.402       .  A
C943        C948   1.407       .  A
C944        C945   1.398       .  A
C944        H953   1.083       .  S
C945        C946   1.409       .  A
C945        H954   1.080       .  S
C946        C949   1.489       .  S
C946        C947   1.404       .  A
C947        C948   1.398       .  A
C947        H955   1.083       .  S
C948        H956   1.082       .  S
C949        H957   1.082       .  S
C949        C950   1.347       .  D
C950        H958   1.083       .  S
C951        H959   1.087       .  S
C951        C952   1.344       .  D
C952        H960   1.085       .  S
C961        C969   1.482       .  S
C961        C962   1.403       .  A
C961        C966   1.406       .  A
C962        C963   1.399       .  A
C962        H971   1.083       .  S
C963        C964   1.405       .  A
C963        H972   1.083       .  S
C964        C967   1.481       .  S
C964        C965   1.404       .  A
C965        C966   1.402       .  A
C965        H973   1.083       .  S
C966        H974   1.083       .  S
C967        H975   1.087       .  S
C967        C968   1.344       .  D
C968        H976   1.086       .  S
C969        H977   1.087       .  S
C969        C970   1.345       .  D
C970        H978   1.086       .  S
C979        C987   1.490       .  S
C979        C980   1.403       .  A
C979        C984   1.409       .  A
C980        C981   1.396       .  A
C980        H989   1.084       .  S
C981        C982   1.406       .  A
C981        H990   1.082       .  S
C982        C985   1.492       .  S
C982        C983   1.406       .  A
C983        C984   1.405       .  A
C983        H991   1.083       .  S
C984        H992   1.081       .  S
C985        H993   1.087       .  S
C985        C986   1.348       .  D
C986        H994   1.085       .  S
C987        H995   1.085       .  S
C987        C988   1.348       .  D
C988        H996   1.084       .  S
C997       C1005   1.487       .  S
C997        C998   1.403       .  A
C997       C1002   1.409       .  A
C998        C999   1.397       .  A
C998       H1007   1.084       .  S
C999       C1000   1.408       .  A
C999       H1008   1.080       .  S
C1000      C1003   1.488       .  S
C1000      C1001   1.403       .  A
C1001      C1002   1.398       .  A
C1001      H1009   1.084       .  S
C1002      H1010   1.080       .  S
C1003      H1011   1.082       .  S
C1003      C1004   1.346       .  D
C1004      H1012   1.084       .  S
C1005      H1013   1.087       .  S
C1005      C1006   1.345       .  D
C1006      H1014   1.083       .  S
C1015      C1023   1.492       .  S
C1015      C1016   1.406       .  A
C1015      C1020   1.406       .  A
C1016      C1017   1.407       .  A
C1016      H1025   1.083       .  S
C1017      C1018   1.410       .  A
C1017      H1026   1.081       .  S
C1018      C1021   1.491       .  S
C1018      C1019   1.403       .  A
C1019      C1020   1.394       .  A
C1019      H1027   1.084       .  S
C1020      H1028   1.083       .  S
C1021      H1029   1.087       .  S
C1021      C1022   1.349       .  D
C1022      H1030   1.084       .  S
C1023      H1031   1.085       .  S
C1023      C1024   1.348       .  D
C1024      H1032   1.086       .  S
C1033      C1041   1.482       .  S
C1033      C1034   1.403       .  A
C1033      C1038   1.405       .  A
C1034      C1035   1.401       .  A
C1034      H1043   1.083       .  S
C1035      C1036   1.406       .  A
C1035      H1044   1.083       .  S
C1036      C1039   1.483       .  S
C1036      C1037   1.403       .  A
C1037      C1038   1.400       .  A
C1037      H1045   1.083       .  S
C1038      H1046   1.083       .  S
C1039      H1047   1.087       .  S
C1039      C1040   1.344       .  D
C1040      H1048   1.086       .  S
C1041      H1049   1.087       .  S
C1041      C1042   1.344       .  D
C1042      H1050   1.086       .  S
C1051      C1059   1.484       .  S
C1051      C1052   1.402       .  A
C1051      C1056   1.408       .  A
C1052      C1053   1.395       .  A
C1052      H1061   1.084       .  S
C1053      C1054   1.406       .  A
C1053      H1062   1.083       .  S
C1054      C1057   1.487       .  S
C1054      C1055   1.405       .  A
C1055      C1056   1.402       .  A
C1055      H1063   1.083       .  S
C1056      H1064   1.082       .  S
C1057      H1065   1.086       .  S
C1057      C1058   1.346       .  D
C1058      H1066   1.085       .  S
C1059      H1067   1.088       .  S
C1059      C1060   1.345       .  D
C1060      H1068   1.085       .  S
C1069      C1077   1.488       .  S
C1069      C1070   1.404       .  A
C1069      C1074   1.406       .  A
C1070      C1071   1.404       .  A
C1070      H1079   1.083       .  S
C1071      C1072   1.408       .  A
C1071      H1080   1.082       .  S
C1072      C1075   1.485       .  S
C1072      C1073   1.402       .  A
C1073      C1074   1.395       .  A
C1073      H1081   1.084       .  S
C1074      H1082   1.083       .  S
C1075      H1083   1.088       .  S
C1075      C1076   1.344       .  D
C1076      H1084   1.085       .  S
C1077      H1085   1.086       .  S
C1077      C1078   1.345       .  D
C1078      H1086   1.087       .  S
C1087      C1095   1.490       .  S
C1087      C1088   1.406       .  A
C1087      C1092   1.406       .  A
C1088      C1089   1.404       .  A
C1088      H1097   1.083       .  S
C1089      C1090   1.408       .  A
C1089      H1098   1.081       .  S
C1090      C1093   1.487       .  S
C1090      C1091   1.403       .  A
C1091      C1092   1.393       .  A
C1091      H1099   1.084       .  S
C1092      H1100   1.081       .  S
C1093      H1101   1.087       .  S
C1093      C1094   1.349       .  D
C1094      H1102   1.084       .  S
C1095      H1103   1.085       .  S
C1095      C1096   1.349       .  D
C1096      H1104   1.084       .  S
C1105      C1113   1.483       .  S
C1105      C1106   1.401       .  A
C1105      C1110   1.406       .  A
C1106      C1107   1.401       .  A
C1106      H1115   1.083       .  S
C1107      C1108   1.410       .  A
C1107      H1116   1.081       .  S
C1108      C1111   1.486       .  S
C1108      C1109   1.403       .  A
C1109      C1110   1.395       .  A
C1109      H1117   1.084       .  S
C1110      H1118   1.083       .  S
C1111      H1119   1.085       .  S
C1111      C1112   1.344       .  D
C1112      H1120   1.085       .  S
C1113      H1121   1.087       .  S
C1113      C1114   1.342       .  D
C1114      H1122   1.087       .  S
C1123      C1131   1.488       .  S
C1123      C1124   1.402       .  A
C1123      C1128   1.410       .  A
C1124      C1125   1.394       .  A
C1124      H1133   1.084       .  S
C1125      C1126   1.406       .  A
C1125      H1134   1.082       .  S
C1126      C1129   1.489       .  S
C1126      C1127   1.404       .  A
C1127      C1128   1.404       .  A
C1127      H1135   1.083       .  S
C1128      H1136   1.081       .  S
C1129      H1137   1.086       .  S
C1129      C1130   1.345       .  D
C1130      H1138   1.086       .  S
C1131      H1139   1.085       .  S
C1131      C1132   1.346       .  D
C1132      H1140   1.084       .  S
C1141      C1149   1.488       .  S
C1141      C1142   1.402       .  A
C1141      C1146   1.410       .  A
C1142      C1143   1.395       .  A
C1142      H1151   1.084       .  S
C1143      C1144   1.408       .  A
C1143      H1152   1.081       .  S
C1144      C1147   1.489       .  S
C1144      C1145   1.403       .  A
C1145      C1146   1.400       .  A
C1145      H1153   1.083       .  S
C1146      H1154   1.080       .  S
C1147      H1155   1.085       .  S
C1147      C1148   1.346       .  D
C1148      H1156   1.083       .  S
C1149      H1157   1.087       .  S
C1149      C1150   1.344       .  D
C1150      H1158   1.083       .  S
C1159      C1167   1.488       .  S
C1159      C1160   1.404       .  A
C1159      C1164   1.406       .  A
C1160      C1161   1.402       .  A
C1160      H1169   1.083       .  S
C1161      C1162   1.409       .  A
C1161      H1170   1.080       .  S
C1162      C1165   1.489       .  S
C1162      C1163   1.404       .  A
C1163      C1164   1.395       .  A
C1163      H1171   1.084       .  S
C1164      H1172   1.081       .  S
C1165      H1173   1.085       .  S
C1165      C1166   1.348       .  D
C1166      H1174   1.083       .  S
C1167      H1175   1.087       .  S
C1167      C1168   1.346       .  D
C1168      H1176   1.085       .  S
C1177      C1185   1.480       .  S
C1177      C1178   1.403       .  A
C1177      C1182   1.405       .  A
C1178      C1179   1.399       .  A
C1178      H1187   1.083       .  S
C1179      C1180   1.404       .  A
C1179      H1188   1.083       .  S
C1180      C1183   1.478       .  S
C1180      C1181   1.403       .  A
C1181      C1182   1.399       .  A
C1181      H1189   1.083       .  S
C1182      H1190   1.083       .  S
C1183      H1191   1.088       .  S
C1183      C1184   1.344       .  D
C1184      H1192   1.086       .  S
C1185      H1193   1.088       .  S
C1185      C1186   1.343       .  D
C1186      H1194   1.086       .  S
C1195      C1203   1.485       .  S
C1195      C1196   1.403       .  A
C1195      C1200   1.407       .  A
C1196      C1197   1.396       .  A
C1196      H1205   1.084       .  S
C1197      C1198   1.408       .  A
C1197      H1206   1.081       .  S
C1198      C1201   1.488       .  S
C1198      C1199   1.404       .  A
C1199      C1200   1.399       .  A
C1199      H1207   1.083       .  S
C1200      H1208   1.081       .  S
C1201      H1209   1.084       .  S
C1201      C1202   1.346       .  D
C1202      H1210   1.083       .  S
C1203      H1211   1.087       .  S
C1203      C1204   1.347       .  D
C1204      H1212   1.084       .  S
C1213      C1221   1.482       .  S
C1213      C1214   1.402       .  A
C1213      C1218   1.409       .  A
C1214      C1215   1.392       .  A
C1214      H1223   1.084       .  S
C1215      C1216   1.404       .  A
C1215      H1224   1.083       .  S
C1216      C1219   1.481       .  S
C1216      C1217   1.402       .  A
C1217      C1218   1.402       .  A
C1217      H1225   1.083       .  S
C1218      H1226   1.081       .  S
C1219      H1227   1.086       .  S
C1219      C1220   1.343       .  D
C1220      H1228   1.087       .  S
C1221      H1229   1.088       .  S
C1221      C1222   1.344       .  D
C1222      H1230   1.085       .  S
C1231      C1239   1.478       .  S
C1231      C1232   1.402       .  A
C1231      C1236   1.404       .  A
C1232      C1233   1.400       .  A
C1232      H1241   1.083       .  S
C1233      C1234   1.409       .  A
C1233      H1242   1.081       .  S
C1234      C1237   1.479       .  S
C1234      C1235   1.402       .  A
C1235      C1236   1.390       .  A
C1235      H1243   1.084       .  S
C1236      H1244   1.083       .  S
C1237      H1245   1.088       .  S
C1237      C1238   1.343       .  D
C1238      H1246   1.084       .  S
C1239      H1247   1.084       .  S
C1239      C1240   1.345       .  D
C1240      H1248   1.086       .  S
C1249      C1257   1.484       .  S
C1249      C1250   1.401       .  A
C1249      C1254   1.409       .  A
C1250      C1251   1.396       .  A
C1250      H1259   1.083       .  S
C1251      C1252   1.407       .  A
C1251      H1260   1.083       .  S
C1252      C1255   1.485       .  S
C1252      C1253   1.402       .  A
C1253      C1254   1.401       .  A
C1253      H1261   1.083       .  S
C1254      H1262   1.082       .  S
C1255      H1263   1.086       .  S
C1255      C1256   1.344       .  D
C1256      H1264   1.086       .  S
C1257      H1265   1.087       .  S
C1257      C1258   1.343       .  D
C1258      H1266   1.085       .  S
C1267      C1275   1.494       .  S
C1267      C1268   1.403       .  A
C1267      C1272   1.410       .  A
C1268      C1269   1.400       .  A
C1268      H1277   1.084       .  S
C1269      C1270   1.409       .  A
C1269      H1278   1.081       .  S
C1270      C1273   1.495       .  S
C1270      C1271   1.405       .  A
C1271      C1272   1.403       .  A
C1271      H1279   1.083       .  S
C1272      H1280   1.081       .  S
C1273      H1281   1.087       .  S
C1273      C1274   1.347       .  D
C1274      H1282   1.085       .  S
C1275      H1283   1.087       .  S
C1275      C1276   1.347       .  D
C1276      H1284   1.084       .  S
C1285      C1293   1.483       .  S
C1285      C1286   1.401       .  A
C1285      C1290   1.406       .  A
C1286      C1287   1.397       .  A
C1286      H1295   1.084       .  S
C1287      C1288   1.411       .  A
C1287      H1296   1.080       .  S
C1288      C1291   1.497       .  S
C1288      C1289   1.407       .  A
C1289      C1290   1.404       .  A
C1289      H1297   1.083       .  S
C1290      H1298   1.083       .  S
C1291      H1299   1.087       .  S
C1291      C1292   1.347       .  D
C1292      H1300   1.083       .  S
C1293      H1301   1.087       .  S
C1293      C1294   1.346       .  D
C1294      H1302   1.086       .  S
C1303      C1311   1.491       .  S
C1303      C1304   1.404       .  A
C1303      C1308   1.409       .  A
C1304      C1305   1.399       .  A
C1304      H1313   1.083       .  S
C1305      C1306   1.403       .  A
C1305      H1314   1.083       .  S
C1306      C1309   1.490       .  S
C1306      C1307   1.408       .  A
C1307      C1308   1.402       .  A
C1307      H1315   1.082       .  S
C1308      H1316   1.081       .  S
C1309      H1317   1.087       .  S
C1309      C1310   1.347       .  D
C1310      H1318   1.085       .  S
C1311      H1319   1.087       .  S
C1311      C1312   1.348       .  D
C1312      H1320   1.084       .  S
C1321      C1329   1.492       .  S
C1321      C1322   1.403       .  A
C1321      C1326   1.409       .  A
C1322      C1323   1.400       .  A
C1322      H1331   1.083       .  S
C1323      C1324   1.410       .  A
C1323      H1332   1.081       .  S
C1324      C1327   1.494       .  S
C1324      C1325   1.404       .  A
C1325      C1326   1.401       .  A
C1325      H1333   1.083       .  S
C1326      H1334   1.081       .  S
C1327      H1335   1.087       .  S
C1327      C1328   1.347       .  D
C1328      H1336   1.084       .  S
C1329      H1337   1.087       .  S
C1329      C1330   1.347       .  D
C1330      H1338   1.084       .  S
C1339      C1347   1.491       .  S
C1339      C1340   1.404       .  A
C1339      C1344   1.409       .  A
C1340      C1341   1.396       .  A
C1340      H1349   1.084       .  S
C1341      C1342   1.407       .  A
C1341      H1350   1.081       .  S
C1342      C1345   1.489       .  S
C1342      C1343   1.404       .  A
C1343      C1344   1.402       .  A
C1343      H1351   1.083       .  S
C1344      H1352   1.080       .  S
C1345      H1353   1.087       .  S
C1345      C1346   1.347       .  D
C1346      H1354   1.084       .  S
C1347      H1355   1.083       .  S
C1347      C1348   1.349       .  D
C1348      H1356   1.083       .  S
C1357      C1365   1.490       .  S
C1357      C1358   1.405       .  A
C1357      C1362   1.408       .  A
C1358      C1359   1.399       .  A
C1358      H1367   1.083       .  S
C1359      C1360   1.407       .  A
C1359      H1368   1.081       .  S
C1360      C1363   1.487       .  S
C1360      C1361   1.404       .  A
C1361      C1362   1.400       .  A
C1361      H1369   1.083       .  S
C1362      H1370   1.081       .  S
C1363      H1371   1.087       .  S
C1363      C1364   1.347       .  D
C1364      H1372   1.085       .  S
C1365      H1373   1.084       .  S
C1365      C1366   1.350       .  D
C1366      H1374   1.084       .  S
C1375      C1383   1.487       .  S
C1375      C1376   1.402       .  A
C1375      C1380   1.410       .  A
C1376      C1377   1.397       .  A
C1376      H1385   1.084       .  S
C1377      C1378   1.408       .  A
C1377      H1386   1.081       .  S
C1378      C1381   1.483       .  S
C1378      C1379   1.400       .  A
C1379      C1380   1.396       .  A
C1379      H1387   1.084       .  S
C1380      H1388   1.080       .  S
C1381      H1389   1.087       .  S
C1381      C1382   1.343       .  D
C1382      H1390   1.085       .  S
C1383      H1391   1.087       .  S
C1383      C1384   1.343       .  D
C1384      H1392   1.083       .  S
C1393      C1401   1.488       .  S
C1393      C1394   1.404       .  A
C1393      C1398   1.406       .  A
C1394      C1395   1.404       .  A
C1394      H1403   1.083       .  S
C1395      C1396   1.410       .  A
C1395      H1404   1.080       .  S
C1396      C1399   1.488       .  S
C1396      C1397   1.403       .  A
C1397      C1398   1.393       .  A
C1397      H1405   1.084       .  S
C1398      H1406   1.082       .  S
C1399      H1407   1.086       .  S
C1399      C1400   1.346       .  D
C1400      H1408   1.084       .  S
C1401      H1409   1.086       .  S
C1401      C1402   1.345       .  D
C1402      H1410   1.086       .  S
C1411      C1419   1.492       .  S
C1411      C1412   1.404       .  A
C1411      C1416   1.407       .  A
C1412      C1413   1.399       .  A
C1412      H1421   1.084       .  S
C1413      C1414   1.409       .  A
C1413      H1422   1.079       .  S
C1414      C1417   1.498       .  S
C1414      C1415   1.407       .  A
C1415      C1416   1.403       .  A
C1415      H1423   1.083       .  S
C1416      H1424   1.081       .  S
C1417      H1425   1.087       .  S
C1417      C1418   1.350       .  D
C1418      H1426   1.082       .  S
C1419      H1427   1.084       .  S
C1419      C1420   1.352       .  D
C1420      H1428   1.084       .  S
C1429      C1437   1.483       .  S
C1429      C1430   1.402       .  A
C1429      C1434   1.407       .  A
C1430      C1431   1.394       .  A
C1430      H1439   1.084       .  S
C1431      C1432   1.407       .  A
C1431      H1440   1.082       .  S
C1432      C1435   1.492       .  S
C1432      C1433   1.406       .  A
C1433      C1434   1.405       .  A
C1433      H1441   1.083       .  S
C1434      H1442   1.082       .  S
C1435      H1443   1.086       .  S
C1435      C1436   1.346       .  D
C1436      H1444   1.084       .  S
C1437      H1445   1.088       .  S
C1437      C1438   1.347       .  D
C1438      H1446   1.085       .  S
C1447      C1455   1.494       .  S
C1447      C1448   1.406       .  A
C1447      C1452   1.406       .  A
C1448      C1449   1.405       .  A
C1448      H1457   1.083       .  S
C1449      C1450   1.408       .  A
C1449      H1458   1.080       .  S
C1450      C1453   1.495       .  S
C1450      C1451   1.407       .  A
C1451      C1452   1.399       .  A
C1451      H1459   1.084       .  S
C1452      H1460   1.082       .  S
C1453      H1461   1.085       .  S
C1453      C1454   1.354       .  D
C1454      H1462   1.083       .  S
C1455      H1463   1.087       .  S
C1455      C1456   1.349       .  D
C1456      H1464   1.085       .  S
C1465      C1473   1.488       .  S
C1465      C1466   1.404       .  A
C1465      C1470   1.408       .  A
C1466      C1467   1.398       .  A
C1466      H1475   1.084       .  S
C1467      C1468   1.407       .  A
C1467      H1476   1.081       .  S
C1468      C1471   1.485       .  S
C1468      C1469   1.402       .  A
C1469      C1470   1.396       .  A
C1469      H1477   1.084       .  S
C1470      H1478   1.080       .  S
C1471      H1479   1.083       .  S
C1471      C1472   1.346       .  D
C1472      H1480   1.084       .  S
C1473      H1481   1.087       .  S
C1473      C1474   1.346       .  D
C1474      H1482   1.083       .  S
C1483      C1491   1.483       .  S
C1483      C1484   1.401       .  A
C1483      C1488   1.406       .  A
C1484      C1485   1.397       .  A
C1484      H1493   1.084       .  S
C1485      C1486   1.411       .  A
C1485      H1494   1.078       .  S
C1486      C1489   1.495       .  S
C1486      C1487   1.406       .  A
C1487      C1488   1.401       .  A
C1487      H1495   1.083       .  S
C1488      H1496   1.082       .  S
C1489      H1497   1.087       .  S
C1489      C1490   1.347       .  D
C1490      H1498   1.081       .  S
C1491      H1499   1.087       .  S
C1491      C1492   1.347       .  D
C1492      H1500   1.085       .  S
C1501      C1509   1.487       .  S
C1501      C1502   1.402       .  A
C1501      C1506   1.409       .  A
C1502      C1503   1.395       .  A
C1502      H1511   1.084       .  S
C1503      C1504   1.407       .  A
C1503      H1512   1.082       .  S
C1504      C1507   1.489       .  S
C1504      C1505   1.404       .  A
C1505      C1506   1.403       .  A
C1505      H1513   1.083       .  S
C1506      H1514   1.081       .  S
C1507      H1515   1.085       .  S
C1507      C1508   1.347       .  D
C1508      H1516   1.084       .  S
C1509      H1517   1.087       .  S
C1509      C1510   1.345       .  D
C1510      H1518   1.084       .  S
C1519      C1527   1.487       .  S
C1519      C1520   1.402       .  A
C1519      C1524   1.406       .  A
C1520      C1521   1.397       .  A
C1520      H1529   1.084       .  S
C1521      C1522   1.410       .  A
C1521      H1530   1.080       .  S
C1522      C1525   1.496       .  S
C1522      C1523   1.407       .  A
C1523      C1524   1.403       .  A
C1523      H1531   1.083       .  S
C1524      H1532   1.082       .  S
C1525      H1533   1.085       .  S
C1525      C1526   1.348       .  D
C1526      H1534   1.084       .  S
C1527      H1535   1.087       .  S
C1527      C1528   1.347       .  D
C1528      H1536   1.086       .  S
C1537      C1545   1.492       .  S
C1537      C1538   1.405       .  A
C1537      C1542   1.409       .  A
C1538      C1539   1.402       .  A
C1538      H1547   1.083       .  S
C1539      C1540   1.407       .  A
C1539      H1548   1.082       .  S
C1540      C1543   1.483       .  S
C1540      C1541   1.401       .  A
C1541      C1542   1.396       .  A
C1541      H1549   1.084       .  S
C1542      H1550   1.081       .  S
C1543      H1551   1.087       .  S
C1543      C1544   1.344       .  D
C1544      H1552   1.086       .  S
C1545      H1553   1.086       .  S
C1545      C1546   1.347       .  D
C1546      H1554   1.084       .  S
C1555      C1563   1.495       .  S
C1555      C1556   1.406       .  A
C1555      C1560   1.407       .  A
C1556      C1557   1.406       .  A
C1556      H1565   1.083       .  S
C1557      C1558   1.410       .  A
C1557      H1566   1.080       .  S
C1558      C1561   1.493       .  S
C1558      C1559   1.404       .  A
C1559      C1560   1.395       .  A
C1559      H1567   1.084       .  S
C1560      H1568   1.081       .  S
C1561      H1569   1.087       .  S
C1561      C1562   1.350       .  D
C1562      H1570   1.084       .  S
C1563      H1571   1.085       .  S
C1563      C1564   1.349       .  D
C1564      H1572   1.084       .  S
C1573      C1581   1.492       .  S
C1573      C1574   1.403       .  A
C1573      C1578   1.410       .  A
C1574      C1575   1.398       .  A
C1574      H1583   1.083       .  S
C1575      C1576   1.408       .  A
C1575      H1584   1.082       .  S
C1576      C1579   1.491       .  S
C1576      C1577   1.403       .  A
C1577      C1578   1.402       .  A
C1577      H1585   1.083       .  S
C1578      H1586   1.081       .  S
C1579      H1587   1.085       .  S
C1579      C1580   1.346       .  D
C1580      H1588   1.085       .  S
C1581      H1589   1.087       .  S
C1581      C1582   1.346       .  D
C1582      H1590   1.084       .  S
C1591      C1599   1.491       .  S
C1591      C1592   1.405       .  A
C1591      C1596   1.406       .  A
C1592      C1593   1.406       .  A
C1592      H1601   1.083       .  S
C1593      C1594   1.411       .  A
C1593      H1602   1.080       .  S
C1594      C1597   1.491       .  S
C1594      C1595   1.403       .  A
C1595      C1596   1.394       .  A
C1595      H1603   1.084       .  S
C1596      H1604   1.082       .  S
C1597      H1605   1.084       .  S
C1597      C1598   1.347       .  D
C1598      H1606   1.084       .  S
C1599      H1607   1.086       .  S
C1599      C1600   1.346       .  D
C1600      H1608   1.086       .  S
C1609      C1617   1.490       .  S
C1609      C1610   1.403       .  A
C1609      C1614   1.409       .  A
C1610      C1611   1.401       .  A
C1610      H1619   1.083       .  S
C1611      C1612   1.410       .  A
C1611      H1620   1.081       .  S
C1612      C1615   1.490       .  S
C1612      C1613   1.402       .  A
C1613      C1614   1.397       .  A
C1613      H1621   1.083       .  S
C1614      H1622   1.082       .  S
C1615      H1623   1.087       .  S
C1615      C1616   1.345       .  D
C1616      H1624   1.084       .  S
C1617      H1625   1.085       .  S
C1617      C1618   1.345       .  D
C1618      H1626   1.084       .  S
C1627      C1635   1.487       .  S
C1627      C1628   1.403       .  A
C1627      C1632   1.410       .  A
C1628      C1629   1.394       .  A
C1628      H1637   1.084       .  S
C1629      C1630   1.405       .  A
C1629      H1638   1.083       .  S
C1630      C1633   1.486       .  S
C1630      C1631   1.404       .  A
C1631      C1632   1.404       .  A
C1631      H1639   1.083       .  S
C1632      H1640   1.081       .  S
C1633      H1641   1.086       .  S
C1633      C1634   1.344       .  D
C1634      H1642   1.087       .  S
C1635      H1643   1.086       .  S
C1635      C1636   1.345       .  D
C1636      H1644   1.084       .  S
C1645      C1653   1.485       .  S
C1645      C1646   1.402       .  A
C1645      C1650   1.410       .  A
C1646      C1647   1.391       .  A
C1646      H1655   1.084       .  S
C1647      C1648   1.405       .  A
C1647      H1656   1.083       .  S
C1648      C1651   1.486       .  S
C1648      C1649   1.404       .  A
C1649      C1650   1.406       .  A
C1649      H1657   1.083       .  S
C1650      H1658   1.082       .  S
C1651      H1659   1.085       .  S
C1651      C1652   1.345       .  D
C1652      H1660   1.087       .  S
C1653      H1661   1.088       .  S
C1653      C1654   1.345       .  D
C1654      H1662   1.085       .  S
C1663      C1671   1.477       .  S
C1663      C1664   1.401       .  A
C1663      C1668   1.405       .  A
C1664      C1665   1.399       .  A
C1664      H1673   1.083       .  S
C1665      C1666   1.406       .  A
C1665      H1674   1.083       .  S
C1666      C1669   1.479       .  S
C1666      C1667   1.402       .  A
C1667      C1668   1.398       .  A
C1667      H1675   1.083       .  S
C1668      H1676   1.083       .  S
C1669      H1677   1.086       .  S
C1669      C1670   1.342       .  D
C1670      H1678   1.087       .  S
C1671      H1679   1.087       .  S
C1671      C1672   1.342       .  D
C1672      H1680   1.087       .  S
C1681      C1689   1.490       .  S
C1681      C1682   1.406       .  A
C1681      C1686   1.407       .  A
C1682      C1683   1.401       .  A
C1682      H1691   1.083       .  S
C1683      C1684   1.407       .  A
C1683      H1692   1.081       .  S
C1684      C1687   1.486       .  S
C1684      C1685   1.403       .  A
C1685      C1686   1.396       .  A
C1685      H1693   1.084       .  S
C1686      H1694   1.081       .  S
C1687      H1695   1.087       .  S
C1687      C1688   1.347       .  D
C1688      H1696   1.085       .  S
C1689      H1697   1.084       .  S
C1689      C1690   1.349       .  D
C1690      H1698   1.083       .  S
C1699      C1707   1.482       .  S
C1699      C1700   1.403       .  A
C1699      C1704   1.405       .  A
C1700      C1701   1.400       .  A
C1700      H1709   1.083       .  S
C1701      C1702   1.406       .  A
C1701      H1710   1.083       .  S
C1702      C1705   1.483       .  S
C1702      C1703   1.404       .  A
C1703      C1704   1.401       .  A
C1703      H1711   1.083       .  S
C1704      H1712   1.083       .  S
C1705      H1713   1.087       .  S
C1705      C1706   1.344       .  D
C1706      H1714   1.086       .  S
C1707      H1715   1.087       .  S
C1707      C1708   1.345       .  D
C1708      H1716   1.086       .  S
C1717      C1725   1.491       .  S
C1717      C1718   1.404       .  A
C1717      C1722   1.409       .  A
C1718      C1719   1.396       .  A
C1718      H1727   1.084       .  S
C1719      C1720   1.406       .  A
C1719      H1728   1.082       .  S
C1720      C1723   1.493       .  S
C1720      C1721   1.406       .  A
C1721      C1722   1.405       .  A
C1721      H1729   1.083       .  S
C1722      H1730   1.081       .  S
C1723      H1731   1.085       .  S
C1723      C1724   1.349       .  D
C1724      H1732   1.085       .  S
C1725      H1733   1.087       .  S
C1725      C1726   1.350       .  D
C1726      H1734   1.084       .  S
C1735      C1743   1.490       .  S
C1735      C1736   1.403       .  A
C1735      C1740   1.410       .  A
C1736      C1737   1.398       .  A
C1736      H1745   1.083       .  S
C1737      C1738   1.407       .  A
C1737      H1746   1.082       .  S
C1738      C1741   1.488       .  S
C1738      C1739   1.403       .  A
C1739      C1740   1.402       .  A
C1739      H1747   1.083       .  S
C1740      H1748   1.081       .  S
C1741      H1749   1.087       .  S
C1741      C1742   1.345       .  D
C1742      H1750   1.086       .  S
C1743      H1751   1.084       .  S
C1743      C1744   1.347       .  D
C1744      H1752   1.084       .  S
C1753      C1761   1.487       .  S
C1753      C1754   1.402       .  A
C1753      C1758   1.408       .  A
C1754      C1755   1.395       .  A
C1754      H1763   1.084       .  S
C1755      C1756   1.404       .  A
C1755      H1764   1.084       .  S
C1756      C1759   1.489       .  S
C1756      C1757   1.409       .  A
C1757      C1758   1.401       .  A
C1757      H1765   1.080       .  S
C1758      H1766   1.081       .  S
C1759      H1767   1.082       .  S
C1759      C1760   1.348       .  D
C1760      H1768   1.083       .  S
C1761      H1769   1.087       .  S
C1761      C1762   1.346       .  D
C1762      H1770   1.084       .  S
C1771      C1779   1.485       .  S
C1771      C1772   1.401       .  A
C1771      C1776   1.409       .  A
C1772      C1773   1.394       .  A
C1772      H1781   1.084       .  S
C1773      C1774   1.408       .  A
C1773      H1782   1.081       .  S
C1774      C1777   1.486       .  S
C1774      C1775   1.403       .  A
C1775      C1776   1.400       .  A
C1775      H1783   1.083       .  S
C1776      H1784   1.080       .  S
C1777      H1785   1.085       .  S
C1777      C1778   1.346       .  D
C1778      H1786   1.083       .  S
C1779      H1787   1.087       .  S
C1779      C1780   1.344       .  D
C1780      H1788   1.084       .  S
C1789      C1797   1.480       .  S
C1789      C1790   1.402       .  A
C1789      C1794   1.404       .  A
C1790      C1791   1.401       .  A
C1790      H1799   1.083       .  S
C1791      C1792   1.406       .  A
C1791      H1800   1.083       .  S
C1792      C1795   1.480       .  S
C1792      C1793   1.403       .  A
C1793      C1794   1.398       .  A
C1793      H1801   1.083       .  S
C1794      H1802   1.083       .  S
C1795      H1803   1.086       .  S
C1795      C1796   1.344       .  D
C1796      H1804   1.086       .  S
C1797      H1805   1.087       .  S
C1797      C1798   1.341       .  D
C1798      H1806   1.087       .  S
C1807      C1815   1.490       .  S
C1807      C1808   1.404       .  A
C1807      C1812   1.408       .  A
C1808      C1809   1.400       .  A
C1808      H1817   1.083       .  S
C1809      C1810   1.409       .  A
C1809      H1818   1.081       .  S
C1810      C1813   1.490       .  S
C1810      C1811   1.403       .  A
C1811      C1812   1.399       .  A
C1811      H1819   1.083       .  S
C1812      H1820   1.081       .  S
C1813      H1821   1.087       .  S
C1813      C1814   1.346       .  D
C1814      H1822   1.084       .  S
C1815      H1823   1.087       .  S
C1815      C1816   1.347       .  D
C1816      H1824   1.085       .  S
C1825      C1833   1.493       .  S
C1825      C1826   1.405       .  A
C1825      C1830   1.409       .  A
C1826      C1827   1.398       .  A
C1826      H1835   1.083       .  S
C1827      C1828   1.407       .  A
C1827      H1836   1.081       .  S
C1828      C1831   1.492       .  S
C1828      C1829   1.405       .  A
C1829      C1830   1.403       .  A
C1829      H1837   1.083       .  S
C1830      H1838   1.080       .  S
C1831      H1839   1.084       .  S
C1831      C1832   1.350       .  D
C1832      H1840   1.084       .  S
C1833      H1841   1.087       .  S
C1833      C1834   1.351       .  D
C1834      H1842   1.083       .  S
C1843      C1851   1.491       .  S
C1843      C1844   1.403       .  A
C1843      C1848   1.409       .  A
C1844      C1845   1.398       .  A
C1844      H1853   1.084       .  S
C1845      C1846   1.409       .  A
C1845      H1854   1.082       .  S
C1846      C1849   1.495       .  S
C1846      C1847   1.405       .  A
C1847      C1848   1.405       .  A
C1847      H1855   1.083       .  S
C1848      H1856   1.082       .  S
C1849      H1857   1.085       .  S
C1849      C1850   1.348       .  D
C1850      H1858   1.084       .  S
C1851      H1859   1.087       .  S
C1851      C1852   1.349       .  D
C1852      H1860   1.085       .  S
C1861      C1869   1.489       .  S
C1861      C1862   1.402       .  A
C1861      C1866   1.411       .  A
C1862      C1863   1.391       .  A
C1862      H1871   1.084       .  S
C1863      C1864   1.401       .  A
C1863      H1872   1.084       .  S
C1864      C1867   1.486       .  S
C1864      C1865   1.408       .  A
C1865      C1866   1.408       .  A
C1865      H1873   1.082       .  S
C1866      H1874   1.081       .  S
C1867      H1875   1.088       .  S
C1867      C1868   1.349       .  D
C1868      H1876   1.085       .  S
C1869      H1877   1.087       .  S
C1869      C1870   1.346       .  D
C1870      H1878   1.084       .  S
C1879      C1887   1.495       .  S
C1879      C1880   1.404       .  A
C1879      C1884   1.410       .  A
C1880      C1881   1.399       .  A
C1880      H1889   1.084       .  S
C1881      C1882   1.408       .  A
C1881      H1890   1.082       .  S
C1882      C1885   1.494       .  S
C1882      C1883   1.405       .  A
C1883      C1884   1.406       .  A
C1883      H1891   1.083       .  S
C1884      H1892   1.081       .  S
C1885      H1893   1.086       .  S
C1885      C1886   1.348       .  D
C1886      H1894   1.086       .  S
C1887      H1895   1.084       .  S
C1887      C1888   1.350       .  D
C1888      H1896   1.084       .  S
C1897      C1905   1.488       .  S
C1897      C1898   1.402       .  A
C1897      C1902   1.409       .  A
C1898      C1899   1.395       .  A
C1898      H1907   1.084       .  S
C1899      C1900   1.408       .  A
C1899      H1908   1.082       .  S
C1900      C1903   1.493       .  S
C1900      C1901   1.404       .  A
C1901      C1902   1.405       .  A
C1901      H1909   1.083       .  S
C1902      H1910   1.082       .  S
C1903      H1911   1.085       .  S
C1903      C1904   1.345       .  D
C1904      H1912   1.085       .  S
C1905      H1913   1.087       .  S
C1905      C1906   1.345       .  D
C1906      H1914   1.085       .  S
C1915      C1923   1.481       .  S
C1915      C1916   1.401       .  A
C1915      C1920   1.406       .  A
C1916      C1917   1.401       .  A
C1916      H1925   1.083       .  S
C1917      C1918   1.410       .  A
C1917      H1926   1.081       .  S
C1918      C1921   1.482       .  S
C1918      C1919   1.401       .  A
C1919      C1920   1.392       .  A
C1919      H1927   1.084       .  S
C1920      H1928   1.083       .  S
C1921      H1929   1.088       .  S
C1921      C1922   1.342       .  D
C1922      H1930   1.085       .  S
C1923      H1931   1.085       .  S
C1923      C1924   1.343       .  D
C1924      H1932   1.086       .  S
C1933      C1941   1.487       .  S
C1933      C1934   1.402       .  A
C1933      C1938   1.409       .  A
C1934      C1935   1.395       .  A
C1934      H1943   1.084       .  S
C1935      C1936   1.408       .  A
C1935      H1944   1.082       .  S
C1936      C1939   1.489       .  S
C1936      C1937   1.403       .  A
C1937      C1938   1.402       .  A
C1937      H1945   1.083       .  S
C1938      H1946   1.081       .  S
C1939      H1947   1.085       .  S
C1939      C1940   1.346       .  D
C1940      H1948   1.085       .  S
C1941      H1949   1.087       .  S
C1941      C1942   1.345       .  D
C1942      H1950   1.084       .  S
C1951      C1959   1.493       .  S
C1951      C1952   1.407       .  A
C1951      C1956   1.405       .  A
C1952      C1953   1.405       .  A
C1952      H1961   1.083       .  S
C1953      C1954   1.408       .  A
C1953      H1962   1.081       .  S
C1954      C1957   1.493       .  S
C1954      C1955   1.406       .  A
C1955      C1956   1.398       .  A
C1955      H1963   1.084       .  S
C1956      H1964   1.082       .  S
C1957      H1965   1.085       .  S
C1957      C1958   1.353       .  D
C1958      H1966   1.084       .  S
C1959      H1967   1.087       .  S
C1959      C1960   1.349       .  D
C1960      H1968   1.085       .  S
C1969      C1977   1.483       .  S
C1969      C1970   1.404       .  A
C1969      C1974   1.406       .  A
C1970      C1971   1.400       .  A
C1970      H1979   1.083       .  S
C1971      C1972   1.404       .  A
C1971      H1980   1.083       .  S
C1972      C1975   1.477       .  S
C1972      C1973   1.402       .  A
C1973      C1974   1.399       .  A
C1973      H1981   1.083       .  S
C1974      H1982   1.083       .  S
C1975      H1983   1.087       .  S
C1975      C1976   1.342       .  D
C1976      H1984   1.086       .  S
C1977      H1985   1.087       .  S
C1977      C1978   1.345       .  D
C1978      H1986   1.086       .  S
C1987      C1995   1.483       .  S
C1987      C1988   1.403       .  A
C1987      C1992   1.407       .  A
C1988      C1989   1.393       .  A
C1988      H1997   1.084       .  S
C1989      C1990   1.405       .  A
C1989      H1998   1.082       .  S
C1990      C1993   1.484       .  S
C1990      C1991   1.404       .  A
C1991      C1992   1.401       .  A
C1991      H1999   1.083       .  S
C1992      H2000   1.081       .  S
C1993      H2001   1.084       .  S
C1993      C1994   1.347       .  D
C1994      H2002   1.084       .  S
C1995      H2003   1.088       .  S
C1995      C1996   1.346       .  D
C1996      H2004   1.084       .  S
C2005      C2013   1.488       .  S
C2005      C2006   1.403       .  A
C2005      C2010   1.408       .  A
C2006      C2007   1.396       .  A
C2006      H2015   1.084       .  S
C2007      C2008   1.408       .  A
C2007      H2016   1.081       .  S
C2008      C2011   1.493       .  S
C2008      C2009   1.406       .  A
C2009      C2010   1.404       .  A
C2009      H2017   1.083       .  S
C2010      H2018   1.082       .  S
C2011      H2019   1.085       .  S
C2011      C2012   1.348       .  D
C2012      H2020   1.084       .  S
C2013      H2021   1.087       .  S
C2013      C2014   1.348       .  D
C2014      H2022   1.085       .  S
C2023      C2031   1.489       .  S
C2023      C2024   1.403       .  A
C2023      C2028   1.408       .  A
C2024      C2025   1.402       .  A
C2024      H2033   1.083       .  S
C2025      C2026   1.410       .  A
C2025      H2034   1.081       .  S
C2026      C2029   1.490       .  S
C2026      C2027   1.402       .  A
C2027      C2028   1.397       .  A
C2027      H2035   1.084       .  S
C2028      H2036   1.082       .  S
C2029      H2037   1.087       .  S
C2029      C2030   1.344       .  D
C2030      H2038   1.084       .  S
C2031      H2039   1.087       .  S
C2031      C2032   1.345       .  D
C2032      H2040   1.085       .  S
C2041      C2049   1.486       .  S
C2041      C2042   1.401       .  A
C2041      C2046   1.410       .  A
C2042      C2043   1.395       .  A
C2042      H2051   1.084       .  S
C2043      C2044   1.408       .  A
C2043      H2052   1.083       .  S
C2044      C2047   1.489       .  S
C2044      C2045   1.403       .  A
C2045      C2046   1.404       .  A
C2045      H2053   1.083       .  S
C2046      H2054   1.081       .  S
C2047      H2055   1.085       .  S
C2047      C2048   1.344       .  D
C2048      H2056   1.086       .  S
C2049      H2057   1.087       .  S
C2049      C2050   1.344       .  D
C2050      H2058   1.085       .  S
C2059      C2067   1.486       .  S
C2059      C2060   1.401       .  A
C2059      C2064   1.409       .  A
C2060      C2061   1.394       .  A
C2060      H2069   1.084       .  S
C2061      C2062   1.408       .  A
C2061      H2070   1.082       .  S
C2062      C2065   1.493       .  S
C2062      C2063   1.406       .  A
C2063      C2064   1.406       .  A
C2063      H2071   1.083       .  S
C2064      H2072   1.082       .  S
C2065      H2073   1.086       .  S
C2065      C2066   1.347       .  D
C2066      H2074   1.085       .  S
C2067      H2075   1.088       .  S
C2067      C2068   1.344       .  D
C2068      H2076   1.086       .  S
C2077      C2085   1.489       .  S
C2077      C2078   1.403       .  A
C2077      C2082   1.407       .  A
C2078      C2079   1.402       .  A
C2078      H2087   1.083       .  S
C2079      C2080   1.410       .  A
C2079      H2088   1.081       .  S
C2080      C2083   1.490       .  S
C2080      C2081   1.403       .  A
C2081      C2082   1.397       .  A
C2081      H2089   1.084       .  S
C2082      H2090   1.082       .  S
C2083      H2091   1.087       .  S
C2083      C2084   1.346       .  D
C2084      H2092   1.084       .  S
C2085      H2093   1.085       .  S
C2085      C2086   1.345       .  D
C2086      H2094   1.086       .  S
C2095      C2103   1.502       .  S
C2095      C2096   1.408       .  A
C2095      C2100   1.411       .  A
C2096      C2097   1.401       .  A
C2096      H2105   1.083       .  S
C2097      C2098   1.406       .  A
C2097      H2106   1.082       .  S
C2098      C2101   1.498       .  S
C2098      C2099   1.407       .  A
C2099      C2100   1.407       .  A
C2099      H2107   1.083       .  S
C2100      H2108   1.080       .  S
C2101      H2109   1.087       .  S
C2101      C2102   1.350       .  D
C2102      H2110   1.085       .  S
C2103      H2111   1.083       .  S
C2103      C2104   1.356       .  D
C2104      H2112   1.083       .  S
C2113      C2121   1.486       .  S
C2113      C2114   1.401       .  A
C2113      C2118   1.408       .  A
C2114      C2115   1.394       .  A
C2114      H2123   1.084       .  S
C2115      C2116   1.404       .  A
C2115      H2124   1.084       .  S
C2116      C2119   1.491       .  S
C2116      C2117   1.410       .  A
C2117      C2118   1.405       .  A
C2117      H2125   1.080       .  S
C2118      H2126   1.082       .  S
C2119      H2127   1.086       .  S
C2119      C2120   1.348       .  D
C2120      H2128   1.083       .  S
C2121      H2129   1.087       .  S
C2121      C2122   1.347       .  D
C2122      H2130   1.085       .  S
C2131      C2139   1.484       .  S
C2131      C2132   1.401       .  A
C2131      C2136   1.409       .  A
C2132      C2133   1.392       .  A
C2132      H2141   1.084       .  S
C2133      C2134   1.406       .  A
C2133      H2142   1.083       .  S
C2134      C2137   1.487       .  S
C2134      C2135   1.404       .  A
C2135      C2136   1.404       .  A
C2135      H2143   1.083       .  S
C2136      H2144   1.082       .  S
C2137      H2145   1.085       .  S
C2137      C2138   1.345       .  D
C2138      H2146   1.086       .  S
C2139      H2147   1.087       .  S
C2139      C2140   1.345       .  D
C2140      H2148   1.085       .  S
C2149      C2157   1.484       .  S
C2149      C2150   1.401       .  A
C2149      C2154   1.407       .  A
C2150      C2151   1.394       .  A
C2150      H2159   1.084       .  S
C2151      C2152   1.408       .  A
C2151      H2160   1.081       .  S
C2152      C2155   1.490       .  S
C2152      C2153   1.406       .  A
C2153      C2154   1.403       .  A
C2153      H2161   1.083       .  S
C2154      H2162   1.082       .  S
C2155      H2163   1.085       .  S
C2155      C2156   1.348       .  D
C2156      H2164   1.084       .  S
C2157      H2165   1.087       .  S
C2157      C2158   1.346       .  D
C2158      H2166   1.085       .  S
C2167      C2175   1.494       .  S
C2167      C2168   1.404       .  A
C2167      C2172   1.409       .  A
C2168      C2169   1.401       .  A
C2168      H2177   1.083       .  S
C2169      C2170   1.409       .  A
C2169      H2178   1.081       .  S
C2170      C2173   1.490       .  S
C2170      C2171   1.403       .  A
C2171      C2172   1.399       .  A
C2171      H2179   1.083       .  S
C2172      H2180   1.081       .  S
C2173      H2181   1.087       .  S
C2173      C2174   1.346       .  D
C2174      H2182   1.085       .  S
C2175      H2183   1.084       .  S
C2175      C2176   1.347       .  D
C2176      H2184   1.085       .  S
C2185      C2193   1.485       .  S
C2185      C2186   1.408       .  A
C2185      C2190   1.401       .  A
C2186      C2187   1.406       .  A
C2186      H2195   1.082       .  S
C2187      C2188   1.411       .  A
C2187      H2196   1.080       .  S
C2188      C2191   1.489       .  S
C2188      C2189   1.403       .  A
C2189      C2190   1.392       .  A
C2189      H2197   1.084       .  S
C2190      H2198   1.084       .  S
C2191      H2199   1.086       .  S
C2191      C2192   1.347       .  D
C2192      H2200   1.083       .  S
C2193      H2201   1.087       .  S
C2193      C2194   1.348       .  D
C2194      H2202   1.085       .  S
C2203      C2211   1.487       .  S
C2203      C2204   1.402       .  A
C2203      C2208   1.408       .  A
C2204      C2205   1.398       .  A
C2204      H2213   1.083       .  S
C2205      C2206   1.408       .  A
C2205      H2214   1.082       .  S
C2206      C2209   1.489       .  S
C2206      C2207   1.403       .  A
C2207      C2208   1.401       .  A
C2207      H2215   1.083       .  S
C2208      H2216   1.082       .  S
C2209      H2217   1.085       .  S
C2209      C2210   1.346       .  D
C2210      H2218   1.085       .  S
C2211      H2219   1.087       .  S
C2211      C2212   1.345       .  D
C2212      H2220   1.085       .  S
C2221      C2229   1.489       .  S
C2221      C2222   1.404       .  A
C2221      C2226   1.406       .  A
C2222      C2223   1.405       .  A
C2222      H2231   1.083       .  S
C2223      C2224   1.410       .  A
C2223      H2232   1.081       .  S
C2224      C2227   1.487       .  S
C2224      C2225   1.402       .  A
C2225      C2226   1.393       .  A
C2225      H2233   1.084       .  S
C2226      H2234   1.083       .  S
C2227      H2235   1.087       .  S
C2227      C2228   1.346       .  D
C2228      H2236   1.084       .  S
C2229      H2237   1.085       .  S
C2229      C2230   1.346       .  D
C2230      H2238   1.086       .  S
C2239      C2247   1.491       .  S
C2239      C2240   1.403       .  A
C2239      C2244   1.409       .  A
C2240      C2241   1.396       .  A
C2240      H2249   1.084       .  S
C2241      C2242   1.406       .  A
C2241      H2250   1.082       .  S
C2242      C2245   1.491       .  S
C2242      C2243   1.405       .  A
C2243      C2244   1.405       .  A
C2243      H2251   1.083       .  S
C2244      H2252   1.081       .  S
C2245      H2253   1.087       .  S
C2245      C2246   1.347       .  D
C2246      H2254   1.086       .  S
C2247      H2255   1.084       .  S
C2247      C2248   1.350       .  D
C2248      H2256   1.084       .  S
C2257      C2265   1.491       .  S
C2257      C2258   1.404       .  A
C2257      C2262   1.410       .  A
C2258      C2259   1.395       .  A
C2258      H2267   1.084       .  S
C2259      C2260   1.402       .  A
C2259      H2268   1.084       .  S
C2260      C2263   1.488       .  S
C2260      C2261   1.409       .  A
C2261      C2262   1.403       .  A
C2261      H2269   1.081       .  S
C2262      H2270   1.080       .  S
C2263      H2271   1.087       .  S
C2263      C2264   1.347       .  D
C2264      H2272   1.084       .  S
C2265      H2273   1.085       .  S
C2265      C2266   1.348       .  D
C2266      H2274   1.083       .  S
C2275      C2283   1.483       .  S
C2275      C2276   1.401       .  A
C2275      C2280   1.409       .  A
C2276      C2277   1.393       .  A
C2276      H2285   1.084       .  S
C2277      C2278   1.406       .  A
C2277      H2286   1.083       .  S
C2278      C2281   1.484       .  S
C2278      C2279   1.403       .  A
C2279      C2280   1.403       .  A
C2279      H2287   1.083       .  S
C2280      H2288   1.082       .  S
C2281      H2289   1.085       .  S
C2281      C2282   1.345       .  D
C2282      H2290   1.086       .  S
C2283      H2291   1.088       .  S
C2283      C2284   1.343       .  D
C2284      H2292   1.085       .  S
C2293      C2301   1.491       .  S
C2293      C2294   1.403       .  A
C2293      C2298   1.410       .  A
C2294      C2295   1.395       .  A
C2294      H2303   1.084       .  S
C2295      C2296   1.408       .  A
C2295      H2304   1.081       .  S
C2296      C2299   1.492       .  S
C2296      C2297   1.404       .  A
C2297      C2298   1.402       .  A
C2297      H2305   1.083       .  S
C2298      H2306   1.080       .  S
C2299      H2307   1.086       .  S
C2299      C2300   1.346       .  D
C2300      H2308   1.083       .  S
C2301      H2309   1.087       .  S
C2301      C2302   1.348       .  D
C2302      H2310   1.083       .  S
C2311      C2319   1.487       .  S
C2311      C2312   1.404       .  A
C2311      C2316   1.408       .  A
C2312      C2313   1.401       .  A
C2312      H2321   1.083       .  S
C2313      C2314   1.405       .  A
C2313      H2322   1.083       .  S
C2314      C2317   1.481       .  S
C2314      C2315   1.402       .  A
C2315      C2316   1.399       .  A
C2315      H2323   1.083       .  S
C2316      H2324   1.083       .  S
C2317      H2325   1.087       .  S
C2317      C2318   1.345       .  D
C2318      H2326   1.087       .  S
C2319      H2327   1.086       .  S
C2319      C2320   1.343       .  D
C2320      H2328   1.087       .  S
C2329      C2337   1.479       .  S
C2329      C2330   1.403       .  A
C2329      C2334   1.405       .  A
C2330      C2331   1.399       .  A
C2330      H2339   1.083       .  S
C2331      C2332   1.405       .  A
C2331      H2340   1.083       .  S
C2332      C2335   1.479       .  S
C2332      C2333   1.402       .  A
C2333      C2334   1.399       .  A
C2333      H2341   1.083       .  S
C2334      H2342   1.083       .  S
C2335      H2343   1.087       .  S
C2335      C2336   1.343       .  D
C2336      H2344   1.086       .  S
C2337      H2345   1.087       .  S
C2337      C2338   1.342       .  D
C2338      H2346   1.086       .  S
C2347      C2355   1.488       .  S
C2347      C2348   1.402       .  A
C2347      C2352   1.409       .  A
C2348      C2349   1.396       .  A
C2348      H2357   1.084       .  S
C2349      C2350   1.407       .  A
C2349      H2358   1.082       .  S
C2350      C2353   1.491       .  S
C2350      C2351   1.404       .  A
C2351      C2352   1.404       .  A
C2351      H2359   1.083       .  S
C2352      H2360   1.082       .  S
C2353      H2361   1.086       .  S
C2353      C2354   1.345       .  D
C2354      H2362   1.085       .  S
C2355      H2363   1.087       .  S
C2355      C2356   1.346       .  D
C2356      H2364   1.085       .  S
C2365      C2373   1.487       .  S
C2365      C2366   1.403       .  A
C2365      C2370   1.407       .  A
C2366      C2367   1.401       .  A
C2366      H2375   1.083       .  S
C2367      C2368   1.408       .  A
C2367      H2376   1.081       .  S
C2368      C2371   1.487       .  S
C2368      C2369   1.403       .  A
C2369      C2370   1.396       .  A
C2369      H2377   1.084       .  S
C2370      H2378   1.082       .  S
C2371      H2379   1.087       .  S
C2371      C2372   1.347       .  D
C2372      H2380   1.084       .  S
C2373      H2381   1.085       .  S
C2373      C2374   1.347       .  D
C2374      H2382   1.085       .  S
C2383      C2391   1.490       .  S
C2383      C2384   1.405       .  A
C2383      C2388   1.405       .  A
C2384      C2385   1.407       .  A
C2384      H2393   1.083       .  S
C2385      C2386   1.411       .  A
C2385      H2394   1.081       .  S
C2386      C2389   1.492       .  S
C2386      C2387   1.403       .  A
C2387      C2388   1.395       .  A
C2387      H2395   1.083       .  S
C2388      H2396   1.083       .  S
C2389      H2397   1.085       .  S
C2389      C2390   1.349       .  D
C2390      H2398   1.084       .  S
C2391      H2399   1.086       .  S
C2391      C2392   1.347       .  D
C2392      H2400   1.087       .  S
C2401      C2409   1.481       .  S
C2401      C2402   1.400       .  A
C2401      C2406   1.408       .  A
C2402      C2403   1.392       .  A
C2402      H2411   1.084       .  S
C2403      C2404   1.407       .  A
C2403      H2412   1.082       .  S
C2404      C2407   1.488       .  S
C2404      C2405   1.405       .  A
C2405      C2406   1.403       .  A
C2405      H2413   1.083       .  S
C2406      H2414   1.082       .  S
C2407      H2415   1.085       .  S
C2407      C2408   1.345       .  D
C2408      H2416   1.085       .  S
C2409      H2417   1.088       .  S
C2409      C2410   1.344       .  D
C2410      H2418   1.085       .  S
C2419      C2427   1.486       .  S
C2419      C2420   1.409       .  A
C2419      C2424   1.400       .  A
C2420      C2421   1.406       .  A
C2420      H2429   1.082       .  S
C2421      C2422   1.410       .  A
C2421      H2430   1.081       .  S
C2422      C2425   1.490       .  S
C2422      C2423   1.404       .  A
C2423      C2424   1.393       .  A
C2423      H2431   1.084       .  S
C2424      H2432   1.084       .  S
C2425      H2433   1.086       .  S
C2425      C2426   1.348       .  D
C2426      H2434   1.084       .  S
C2427      H2435   1.087       .  S
C2427      C2428   1.346       .  D
C2428      H2436   1.085       .  S
C2437      C2445   1.487       .  S
C2437      C2438   1.404       .  A
C2437      C2442   1.407       .  A
C2438      C2439   1.401       .  A
C2438      H2447   1.083       .  S
C2439      C2440   1.409       .  A
C2439      H2448   1.081       .  S
C2440      C2443   1.487       .  S
C2440      C2441   1.403       .  A
C2441      C2442   1.395       .  A
C2441      H2449   1.084       .  S
C2442      H2450   1.082       .  S
C2443      H2451   1.087       .  S
C2443      C2444   1.347       .  D
C2444      H2452   1.084       .  S
C2445      H2453   1.084       .  S
C2445      C2446   1.346       .  D
C2446      H2454   1.085       .  S
C2455      C2463   1.496       .  S
C2455      C2456   1.407       .  A
C2455      C2460   1.408       .  A
C2456      C2457   1.405       .  A
C2456      H2465   1.083       .  S
C2457      C2458   1.408       .  A
C2457      H2466   1.081       .  S
C2458      C2461   1.490       .  S
C2458      C2459   1.403       .  A
C2459      C2460   1.396       .  A
C2459      H2467   1.084       .  S
C2460      H2468   1.080       .  S
C2461      H2469   1.086       .  S
C2461      C2462   1.351       .  D
C2462      H2470   1.084       .  S
C2463      H2471   1.087       .  S
C2463      C2464   1.348       .  D
C2464      H2472   1.083       .  S
C2473      C2481   1.480       .  S
C2473      C2474   1.403       .  A
C2473      C2478   1.405       .  A
C2474      C2475   1.400       .  A
C2474      H2483   1.083       .  S
C2475      C2476   1.406       .  A
C2475      H2484   1.083       .  S
C2476      C2479   1.482       .  S
C2476      C2477   1.404       .  A
C2477      C2478   1.400       .  A
C2477      H2485   1.083       .  S
C2478      H2486   1.083       .  S
C2479      H2487   1.087       .  S
C2479      C2480   1.343       .  D
C2480      H2488   1.086       .  S
C2481      H2489   1.087       .  S
C2481      C2482   1.345       .  D
C2482      H2490   1.086       .  S
C2491      C2499   1.484       .  S
C2491      C2492   1.402       .  A
C2491      C2496   1.408       .  A
C2492      C2493   1.395       .  A
C2492      H2501   1.083       .  S
C2493      C2494   1.407       .  A
C2493      H2502   1.082       .  S
C2494      C2497   1.484       .  S
C2494      C2495   1.403       .  A
C2495      C2496   1.399       .  A
C2495      H2503   1.083       .  S
C2496      H2504   1.081       .  S
C2497      H2505   1.084       .  S
C2497      C2498   1.346       .  D
C2498      H2506   1.085       .  S
C2499      H2507   1.087       .  S
C2499      C2500   1.344       .  D
C2500      H2508   1.084       .  S
C2509      C2517   1.484       .  S
C2509      C2510   1.402       .  A
C2509      C2514   1.407       .  A
C2510      C2511   1.397       .  A
C2510      H2519   1.084       .  S
C2511      C2512   1.408       .  A
C2511      H2520   1.081       .  S
C2512      C2515   1.492       .  S
C2512      C2513   1.405       .  A
C2513      C2514   1.402       .  A
C2513      H2521   1.083       .  S
C2514      H2522   1.082       .  S
C2515      H2523   1.085       .  S
C2515      C2516   1.348       .  D
C2516      H2524   1.084       .  S
C2517      H2525   1.088       .  S
C2517      C2518   1.346       .  D
C2518      H2526   1.086       .  S
C2527      C2535   1.489       .  S
C2527      C2528   1.404       .  A
C2527      C2532   1.408       .  A
C2528      C2529   1.397       .  A
C2528      H2537   1.083       .  S
C2529      C2530   1.407       .  A
C2529      H2538   1.081       .  S
C2530      C2533   1.489       .  S
C2530      C2531   1.404       .  A
C2531      C2532   1.401       .  A
C2531      H2539   1.083       .  S
C2532      H2540   1.081       .  S
C2533      H2541   1.087       .  S
C2533      C2534   1.346       .  D
C2534      H2542   1.085       .  S
C2535      H2543   1.085       .  S
C2535      C2536   1.350       .  D
C2536      H2544   1.084       .  S
C2545      C2553   1.485       .  S
C2545      C2546   1.400       .  A
C2545      C2550   1.409       .  A
C2546      C2547   1.394       .  A
C2546      H2555   1.084       .  S
C2547      C2548   1.409       .  A
C2547      H2556   1.082       .  S
C2548      C2551   1.493       .  S
C2548      C2549   1.406       .  A
C2549      C2550   1.405       .  A
C2549      H2557   1.083       .  S
C2550      H2558   1.082       .  S
C2551      H2559   1.085       .  S
C2551      C2552   1.346       .  D
C2552      H2560   1.084       .  S
C2553      H2561   1.087       .  S
C2553      C2554   1.345       .  D
C2554      H2562   1.085       .  S
C2563      C2571   1.489       .  S
C2563      C2564   1.402       .  A
C2563      C2568   1.409       .  A
C2564      C2565   1.396       .  A
C2564      H2573   1.083       .  S
C2565      C2566   1.408       .  A
C2565      H2574   1.083       .  S
C2566      C2569   1.493       .  S
C2566      C2567   1.405       .  A
C2567      C2568   1.406       .  A
C2567      H2575   1.083       .  S
C2568      H2576   1.082       .  S
C2569      H2577   1.086       .  S
C2569      C2570   1.345       .  D
C2570      H2578   1.086       .  S
C2571      H2579   1.087       .  S
C2571      C2572   1.346       .  D
C2572      H2580   1.085       .  S
C2581      C2589   1.485       .  S
C2581      C2582   1.401       .  A
C2581      C2586   1.409       .  A
C2582      C2583   1.394       .  A
C2582      H2591   1.084       .  S
C2583      C2584   1.407       .  A
C2583      H2592   1.082       .  S
C2584      C2587   1.488       .  S
C2584      C2585   1.404       .  A
C2585      C2586   1.403       .  A
C2585      H2593   1.083       .  S
C2586      H2594   1.082       .  S
C2587      H2595   1.085       .  S
C2587      C2588   1.346       .  D
C2588      H2596   1.085       .  S
C2589      H2597   1.087       .  S
C2589      C2590   1.344       .  D
C2590      H2598   1.085       .  S
C2599      C2607   1.497       .  S
C2599      C2600   1.405       .  A
C2599      C2604   1.408       .  A
C2600      C2601   1.400       .  A
C2600      H2609   1.084       .  S
C2601      C2602   1.410       .  A
C2601      H2610   1.080       .  S
C2602      C2605   1.503       .  S
C2602      C2603   1.408       .  A
C2603      C2604   1.406       .  A
C2603      H2611   1.083       .  S
C2604      H2612   1.081       .  S
C2605      H2613   1.087       .  S
C2605      C2606   1.351       .  D
C2606      H2614   1.083       .  S
C2607      H2615   1.085       .  S
C2607      C2608   1.353       .  D
C2608      H2616   1.084       .  S
C2617      C2625   1.485       .  S
C2617      C2618   1.402       .  A
C2617      C2622   1.409       .  A
C2618      C2619   1.394       .  A
C2618      H2627   1.084       .  S
C2619      C2620   1.406       .  A
C2619      H2628   1.082       .  S
C2620      C2623   1.488       .  S
C2620      C2621   1.404       .  A
C2621      C2622   1.404       .  A
C2621      H2629   1.083       .  S
C2622      H2630   1.081       .  S
C2623      H2631   1.086       .  S
C2623      C2624   1.345       .  D
C2624      H2632   1.086       .  S
C2625      H2633   1.088       .  S
C2625      C2626   1.345       .  D
C2626      H2634   1.085       .  S
C2635      C2643   1.485       .  S
C2635      C2636   1.402       .  A
C2635      C2640   1.408       .  A
C2636      C2637   1.393       .  A
C2636      H2645   1.084       .  S
C2637      C2638   1.406       .  A
C2637      H2646   1.082       .  S
C2638      C2641   1.488       .  S
C2638      C2639   1.405       .  A
C2639      C2640   1.404       .  A
C2639      H2647   1.083       .  S
C2640      H2648   1.082       .  S
C2641      H2649   1.085       .  S
C2641      C2642   1.348       .  D
C2642      H2650   1.085       .  S
C2643      H2651   1.087       .  S
C2643      C2644   1.347       .  D
C2644      H2652   1.085       .  S
C2653      C2661   1.490       .  S
C2653      C2654   1.402       .  A
C2653      C2658   1.409       .  A
C2654      C2655   1.393       .  A
C2654      H2663   1.084       .  S
C2655      C2656   1.408       .  A
C2655      H2664   1.080       .  S
C2656      C2659   1.493       .  S
C2656      C2657   1.406       .  A
C2657      C2658   1.405       .  A
C2657      H2665   1.083       .  S
C2658      H2666   1.080       .  S
C2659      H2667   1.086       .  S
C2659      C2660   1.347       .  D
C2660      H2668   1.083       .  S
C2661      H2669   1.087       .  S
C2661      C2662   1.348       .  D
C2662      H2670   1.083       .  S
C2671      C2679   1.484       .  S
C2671      C2672   1.402       .  A
C2671      C2676   1.408       .  A
C2672      C2673   1.393       .  A
C2672      H2681   1.084       .  S
C2673      C2674   1.404       .  A
C2673      H2682   1.083       .  S
C2674      C2677   1.485       .  S
C2674      C2675   1.405       .  A
C2675      C2676   1.404       .  A
C2675      H2683   1.083       .  S
C2676      H2684   1.082       .  S
C2677      H2685   1.086       .  S
C2677      C2678   1.346       .  D
C2678      H2686   1.087       .  S
C2679      H2687   1.084       .  S
C2679      C2680   1.348       .  D
C2680      H2688   1.084       .  S
C2689      C2697   1.478       .  S
C2689      C2690   1.403       .  A
C2689      C2694   1.405       .  A
C2690      C2691   1.400       .  A
C2690      H2699   1.083       .  S
C2691      C2692   1.405       .  A
C2691      H2700   1.083       .  S
C2692      C2695   1.477       .  S
C2692      C2693   1.402       .  A
C2693      C2694   1.398       .  A
C2693      H2701   1.083       .  S
C2694      H2702   1.083       .  S
C2695      H2703   1.087       .  S
C2695      C2696   1.341       .  D
C2696      H2704   1.087       .  S
C2697      H2705   1.087       .  S
C2697      C2698   1.344       .  D
C2698      H2706   1.086       .  S
C2707      C2715   1.493       .  S
C2707      C2708   1.405       .  A
C2707      C2712   1.409       .  A
C2708      C2709   1.404       .  A
C2708      H2717   1.083       .  S
C2709      C2710   1.409       .  A
C2709      H2718   1.082       .  S
C2710      C2713   1.488       .  S
C2710      C2711   1.401       .  A
C2711      C2712   1.395       .  A
C2711      H2719   1.084       .  S
C2712      H2720   1.082       .  S
C2713      H2721   1.087       .  S
C2713      C2714   1.346       .  D
C2714      H2722   1.085       .  S
C2715      H2723   1.085       .  S
C2715      C2716   1.346       .  D
C2716      H2724   1.084       .  S
C2725      C2733   1.490       .  S
C2725      C2726   1.402       .  A
C2725      C2730   1.409       .  A
C2726      C2727   1.397       .  A
C2726      H2735   1.083       .  S
C2727      C2728   1.408       .  A
C2727      H2736   1.082       .  S
C2728      C2731   1.495       .  S
C2728      C2729   1.406       .  A
C2729      C2730   1.405       .  A
C2729      H2737   1.083       .  S
C2730      H2738   1.082       .  S
C2731      H2739   1.086       .  S
C2731      C2732   1.347       .  D
C2732      H2740   1.084       .  S
C2733      H2741   1.087       .  S
C2733      C2734   1.346       .  D
C2734      H2742   1.085       .  S
C2743      C2751   1.496       .  S
C2743      C2744   1.404       .  A
C2743      C2748   1.411       .  A
C2744      C2745   1.397       .  A
C2744      H2753   1.084       .  S
C2745      C2746   1.407       .  A
C2745      H2754   1.082       .  S
C2746      C2749   1.498       .  S
C2746      C2747   1.407       .  A
C2747      C2748   1.410       .  A
C2747      H2755   1.083       .  S
C2748      H2756   1.081       .  S
C2749      H2757   1.086       .  S
C2749      C2750   1.349       .  D
C2750      H2758   1.086       .  S
C2751      H2759   1.084       .  S
C2751      C2752   1.352       .  D
C2752      H2760   1.084       .  S
C2761      C2769   1.489       .  S
C2761      C2762   1.403       .  A
C2761      C2766   1.408       .  A
C2762      C2763   1.395       .  A
C2762      H2771   1.084       .  S
C2763      C2764   1.407       .  A
C2763      H2772   1.081       .  S
C2764      C2767   1.491       .  S
C2764      C2765   1.405       .  A
C2765      C2766   1.403       .  A
C2765      H2773   1.083       .  S
C2766      H2774   1.081       .  S
C2767      H2775   1.085       .  S
C2767      C2768   1.348       .  D
C2768      H2776   1.084       .  S
C2769      H2777   1.087       .  S
C2769      C2770   1.349       .  D
C2770      H2778   1.084       .  S
C2779      C2787   1.485       .  S
C2779      C2780   1.401       .  A
C2779      C2784   1.408       .  A
C2780      C2781   1.393       .  A
C2780      H2789   1.084       .  S
C2781      C2782   1.403       .  A
C2781      H2790   1.084       .  S
C2782      C2785   1.490       .  S
C2782      C2783   1.411       .  A
C2783      C2784   1.406       .  A
C2783      H2791   1.080       .  S
C2784      H2792   1.082       .  S
C2785      H2793   1.086       .  S
C2785      C2786   1.347       .  D
C2786      H2794   1.084       .  S
C2787      H2795   1.088       .  S
C2787      C2788   1.346       .  D
C2788      H2796   1.085       .  S
C2797      C2805   1.495       .  S
C2797      C2798   1.405       .  A
C2797      C2802   1.410       .  A
C2798      C2799   1.396       .  A
C2798      H2807   1.084       .  S
C2799      C2800   1.403       .  A
C2799      H2808   1.084       .  S
C2800      C2803   1.496       .  S
C2800      C2801   1.411       .  A
C2801      C2802   1.406       .  A
C2801      H2809   1.080       .  S
C2802      H2810   1.080       .  S
C2803      H2811   1.087       .  S
C2803      C2804   1.349       .  D
C2804      H2812   1.083       .  S
C2805      H2813   1.082       .  S
C2805      C2806   1.351       .  D
C2806      H2814   1.083       .  S
C2815      C2823   1.492       .  S
C2815      C2816   1.405       .  A
C2815      C2820   1.410       .  A
C2816      C2817   1.394       .  A
C2816      H2825   1.084       .  S
C2817      C2818   1.399       .  A
C2817      H2826   1.084       .  S
C2818      C2821   1.488       .  S
C2818      C2819   1.410       .  A
C2819      C2820   1.410       .  A
C2819      H2827   1.082       .  S
C2820      H2828   1.081       .  S
C2821      H2829   1.087       .  S
C2821      C2822   1.345       .  D
C2822      H2830   1.086       .  S
C2823      H2831   1.087       .  S
C2823      C2824   1.352       .  D
C2824      H2832   1.084       .  S
C2833      C2841   1.477       .  S
C2833      C2834   1.401       .  A
C2833      C2838   1.406       .  A
C2834      C2835   1.395       .  A
C2834      H2843   1.083       .  S
C2835      C2836   1.405       .  A
C2835      H2844   1.083       .  S
C2836      C2839   1.478       .  S
C2836      C2837   1.403       .  A
C2837      C2838   1.400       .  A
C2837      H2845   1.083       .  S
C2838      H2846   1.083       .  S
C2839      H2847   1.087       .  S
C2839      C2840   1.342       .  D
C2840      H2848   1.087       .  S
C2841      H2849   1.087       .  S
C2841      C2842   1.341       .  D
C2842      H2850   1.086       .  S
C2851      C2859   1.497       .  S
C2851      C2852   1.406       .  A
C2851      C2856   1.409       .  A
C2852      C2853   1.404       .  A
C2852      H2861   1.083       .  S
C2853      C2854   1.409       .  A
C2853      H2862   1.081       .  S
C2854      C2857   1.491       .  S
C2854      C2855   1.403       .  A
C2855      C2856   1.398       .  A
C2855      H2863   1.083       .  S
C2856      H2864   1.081       .  S
C2857      H2865   1.087       .  S
C2857      C2858   1.347       .  D
C2858      H2866   1.085       .  S
C2859      H2867   1.086       .  S
C2859      C2860   1.347       .  D
C2860      H2868   1.083       .  S
C2869      C2877   1.492       .  S
C2869      C2870   1.405       .  A
C2869      C2874   1.409       .  A
C2870      C2871   1.402       .  A
C2870      H2879   1.083       .  S
C2871      C2872   1.408       .  A
C2871      H2880   1.082       .  S
C2872      C2875   1.488       .  S
C2872      C2873   1.402       .  A
C2873      C2874   1.398       .  A
C2873      H2881   1.084       .  S
C2874      H2882   1.081       .  S
C2875      H2883   1.087       .  S
C2875      C2876   1.347       .  D
C2876      H2884   1.085       .  S
C2877      H2885   1.085       .  S
C2877      C2878   1.347       .  D
C2878      H2886   1.084       .  S
C2887      C2895   1.498       .  S
C2887      C2888   1.409       .  A
C2887      C2892   1.409       .  A
C2888      C2889   1.406       .  A
C2888      H2897   1.083       .  S
C2889      C2890   1.406       .  A
C2889      H2898   1.082       .  S
C2890      C2893   1.487       .  S
C2890      C2891   1.402       .  A
C2891      C2892   1.396       .  A
C2891      H2899   1.084       .  S
C2892      H2900   1.079       .  S
C2893      H2901   1.087       .  S
C2893      C2894   1.350       .  D
C2894      H2902   1.085       .  S
C2895      H2903   1.087       .  S
C2895      C2896   1.352       .  D
C2896      H2904   1.082       .  S
C2905      C2913   1.483       .  S
C2905      C2906   1.401       .  A
C2905      C2910   1.408       .  A
C2906      C2907   1.394       .  A
C2906      H2915   1.084       .  S
C2907      C2908   1.407       .  A
C2907      H2916   1.082       .  S
C2908      C2911   1.486       .  S
C2908      C2909   1.403       .  A
C2909      C2910   1.401       .  A
C2909      H2917   1.083       .  S
C2910      H2918   1.082       .  S
C2911      H2919   1.084       .  S
C2911      C2912   1.346       .  D
C2912      H2920   1.085       .  S
C2913      H2921   1.087       .  S
C2913      C2914   1.344       .  D
C2914      H2922   1.085       .  S
C2923      C2931   1.487       .  S
C2923      C2924   1.402       .  A
C2923      C2928   1.410       .  A
C2924      C2925   1.390       .  A
C2924      H2933   1.084       .  S
C2925      C2926   1.406       .  A
C2925      H2934   1.083       .  S
C2926      C2929   1.489       .  S
C2926      C2927   1.405       .  A
C2927      C2928   1.407       .  A
C2927      H2935   1.083       .  S
C2928      H2936   1.081       .  S
C2929      H2937   1.085       .  S
C2929      C2930   1.346       .  D
C2930      H2938   1.086       .  S
C2931      H2939   1.087       .  S
C2931      C2932   1.348       .  D
C2932      H2940   1.084       .  S
C2941      C2949   1.478       .  S
C2941      C2942   1.401       .  A
C2941      C2946   1.405       .  A
C2942      C2943   1.398       .  A
C2942      H2951   1.083       .  S
C2943      C2944   1.405       .  A
C2943      H2952   1.083       .  S
C2944      C2947   1.477       .  S
C2944      C2945   1.402       .  A
C2945      C2946   1.398       .  A
C2945      H2953   1.083       .  S
C2946      H2954   1.083       .  S
C2947      H2955   1.087       .  S
C2947      C2948   1.343       .  D
C2948      H2956   1.086       .  S
C2949      H2957   1.087       .  S
C2949      C2950   1.341       .  D
C2950      H2958   1.087       .  S
C2959      C2967   1.495       .  S
C2959      C2960   1.405       .  A
C2959      C2964   1.409       .  A
C2960      C2961   1.403       .  A
C2960      H2969   1.083       .  S
C2961      C2962   1.410       .  A
C2961      H2970   1.079       .  S
C2962      C2965   1.493       .  S
C2962      C2963   1.403       .  A
C2963      C2964   1.397       .  A
C2963      H2971   1.084       .  S
C2964      H2972   1.080       .  S
C2965      H2973   1.088       .  S
C2965      C2966   1.347       .  D
C2966      H2974   1.083       .  S
C2967      H2975   1.085       .  S
C2967      C2968   1.347       .  D
C2968      H2976   1.083       .  S
C2977      C2985   1.491       .  S
C2977      C2978   1.405       .  A
C2977      C2982   1.409       .  A
C2978      C2979   1.401       .  A
C2978      H2987   1.083       .  S
C2979      C2980   1.408       .  A
C2979      H2988   1.081       .  S
C2980      C2983   1.488       .  S
C2980      C2981   1.403       .  A
C2981      C2982   1.397       .  A
C2981      H2989   1.083       .  S
C2982      H2990   1.080       .  S
C2983      H2991   1.087       .  S
C2983      C2984   1.346       .  D
C2984      H2992   1.084       .  S
C2985      H2993   1.085       .  S
C2985      C2986   1.347       .  D
C2986      H2994   1.083       .  S
C2995      C3003   1.485       .  S
C2995      C2996   1.403       .  A
C2995      C3000   1.406       .  A
C2996      C2997   1.402       .  A
C2996      H3005   1.083       .  S
C2997      C2998   1.409       .  A
C2997      H3006   1.081       .  S
C2998      C3001   1.487       .  S
C2998      C2999   1.404       .  A
C2999      C3000   1.395       .  A
C2999      H3007   1.084       .  S
C3000      H3008   1.082       .  S
C3001      H3009   1.086       .  S
C3001      C3002   1.346       .  D
C3002      H3010   1.084       .  S
C3003      H3011   1.087       .  S
C3003      C3004   1.345       .  D
C3004      H3012   1.086       .  S
C3013      C3021   1.486       .  S
C3013      C3014   1.402       .  A
C3013      C3018   1.408       .  A
C3014      C3015   1.396       .  A
C3014      H3023   1.084       .  S
C3015      C3016   1.407       .  A
C3015      H3024   1.082       .  S
C3016      C3019   1.492       .  S
C3016      C3017   1.406       .  A
C3017      C3018   1.405       .  A
C3017      H3025   1.083       .  S
C3018      H3026   1.082       .  S
C3019      H3027   1.086       .  S
C3019      C3020   1.348       .  D
C3020      H3028   1.085       .  S
C3021      H3029   1.088       .  S
C3021      C3022   1.347       .  D
C3022      H3030   1.086       .  S
C3031      C3039   1.495       .  S
C3031      C3032   1.402       .  A
C3031      C3036   1.410       .  A
C3032      C3033   1.397       .  A
C3032      H3041   1.084       .  S
C3033      C3034   1.411       .  A
C3033      H3042   1.078       .  S
C3034      C3037   1.502       .  S
C3034      C3035   1.407       .  A
C3035      C3036   1.405       .  A
C3035      H3043   1.083       .  S
C3036      H3044   1.080       .  S
C3037      H3045   1.087       .  S
C3037      C3038   1.349       .  D
C3038      H3046   1.080       .  S
C3039      H3047   1.087       .  S
C3039      C3040   1.348       .  D
C3040      H3048   1.083       .  S
C3049      C3057   1.487       .  S
C3049      C3050   1.404       .  A
C3049      C3054   1.407       .  A
C3050      C3051   1.400       .  A
C3050      H3059   1.083       .  S
C3051      C3052   1.407       .  A
C3051      H3060   1.081       .  S
C3052      C3055   1.486       .  S
C3052      C3053   1.403       .  A
C3053      C3054   1.396       .  A
C3053      H3061   1.084       .  S
C3054      H3062   1.081       .  S
C3055      H3063   1.087       .  S
C3055      C3056   1.348       .  D
C3056      H3064   1.084       .  S
C3057      H3065   1.083       .  S
C3057      C3058   1.348       .  D
C3058      H3066   1.084       .  S
C3067      C3075   1.478       .  S
C3067      C3068   1.403       .  A
C3067      C3072   1.405       .  A
C3068      C3069   1.400       .  A
C3068      H3077   1.083       .  S
C3069      C3070   1.406       .  A
C3069      H3078   1.083       .  S
C3070      C3073   1.478       .  S
C3070      C3071   1.402       .  A
C3071      C3072   1.397       .  A
C3071      H3079   1.083       .  S
C3072      H3080   1.083       .  S
C3073      H3081   1.087       .  S
C3073      C3074   1.341       .  D
C3074      H3082   1.086       .  S
C3075      H3083   1.088       .  S
C3075      C3076   1.344       .  D
C3076      H3084   1.086       .  S
C3085      C3093   1.489       .  S
C3085      C3086   1.404       .  A
C3085      C3090   1.407       .  A
C3086      C3087   1.403       .  A
C3086      H3095   1.083       .  S
C3087      C3088   1.410       .  A
C3087      H3096   1.080       .  S
C3088      C3091   1.491       .  S
C3088      C3089   1.403       .  A
C3089      C3090   1.395       .  A
C3089      H3097   1.084       .  S
C3090      H3098   1.082       .  S
C3091      H3099   1.087       .  S
C3091      C3092   1.348       .  D
C3092      H3100   1.083       .  S
C3093      H3101   1.085       .  S
C3093      C3094   1.347       .  D
C3094      H3102   1.085       .  S
C3103      C3111   1.488       .  S
C3103      C3104   1.401       .  A
C3103      C3108   1.409       .  A
C3104      C3105   1.397       .  A
C3104      H3113   1.084       .  S
C3105      C3106   1.410       .  A
C3105      H3114   1.080       .  S
C3106      C3109   1.492       .  S
C3106      C3107   1.404       .  A
C3107      C3108   1.400       .  A
C3107      H3115   1.083       .  S
C3108      H3116   1.081       .  S
C3109      H3117   1.087       .  S
C3109      C3110   1.345       .  D
C3110      H3118   1.083       .  S
C3111      H3119   1.087       .  S
C3111      C3112   1.345       .  D
C3112      H3120   1.085       .  S
