geometry optimzed in LAMMPS
_audit_creation_date              2020-11-30 
_audit_creation_method            'lammps2cif' 
_symmetry_space_group_name_H-M    'P1' 
_symmetry_Int_Tables_number       1 
_symmetry_cell_setting            triclinic 
loop_ 
_symmetry_equiv_pos_as_xyz 
  x,y,z 
_cell_length_a                    34.80699142278149 
_cell_length_b                    34.626382334594766 
_cell_length_c                    34.85008649745548 
_cell_angle_alpha                 90.11906079887153 
_cell_angle_beta                  89.45800370694394 
_cell_angle_gamma                 89.92541082960074 
loop_ 
_atom_site_label 
_atom_site_type_symbol 
_atom_site_fract_x 
_atom_site_fract_y 
_atom_site_fract_z 
_atom_site_charge 
O1          O  0.28546173  0.50426074  0.94623481    -0.71940
O2          O  0.29120780  0.49905627  0.05474486    -0.72160
O3          O  0.28625559  0.44721337  0.99779227    -0.72020
O4          O  0.28913955  0.55603277  0.00307479    -0.72030
O5          O  0.22707790  0.55805539  0.00820490    -0.71990
O6          O  0.22401740  0.44853653  0.00035225    -0.72010
O7          O  0.22886027  0.49890075  0.05874669    -0.71950
O8          O  0.22337372  0.50734903  0.95000937    -0.72140
V9          V  0.28675990  0.50166993  0.00059863     1.35240
V10         V  0.22697149  0.50320585  0.00432900     1.35170
C11         C  0.25362963  0.50712901  0.92942841     0.77300
C12         C  0.26114938  0.49734887  0.07516553     0.77350
C13         C  0.25467656  0.42915433  0.99760526     0.77220
C14         C  0.25870551  0.57582517  0.00584061     0.77180
C15         C  0.23923208  0.50252100  0.76063106    -0.02650
O16         O  0.79157372  0.54799907  0.99682687    -0.71940
O17         O  0.78673393  0.43895744  0.99704335    -0.72160
O18         O  0.78481300  0.49308348  0.94263976    -0.72020
O19         O  0.79149571  0.49348665  0.05197571    -0.72030
O20         O  0.72924558  0.49737844  0.05547573    -0.71990
O21         O  0.72259022  0.49605927  0.94746694    -0.72010
O22         O  0.72452612  0.44132031  0.00226653    -0.71950
O23         O  0.72928698  0.55139611  0.00097995    -0.72140
V24         V  0.78745693  0.49349512  0.99723657     1.35240
V25         V  0.72763071  0.49640635  0.00142074     1.35170
C26         C  0.76150525  0.56826010  0.99871096     0.77300
C27         C  0.75512332  0.42147844  0.99979466     0.77350
C28         C  0.75228632  0.49439225  0.92660748     0.77220
C29         C  0.76110513  0.49581268  0.07224050     0.77180
C30         C  0.76045651  0.49760483  0.75914461    -0.02650
O31         O  0.00595571  0.55524560  0.77301136    -0.71940
O32         O  0.00109487  0.44628803  0.77248134    -0.72160
O33         O  0.05749631  0.49773424  0.76874306    -0.72020
O34         O  0.94914532  0.50361372  0.77545280    -0.72030
O35         O  0.94583920  0.50103102  0.71337245    -0.71990
O36         O  0.05458517  0.50147218  0.70656953    -0.72010
O37         O  0.00071170  0.44610775  0.71011876    -0.71950
O38         O  0.99958658  0.55612506  0.71102091    -0.72140
V39         V  0.00334472  0.50076385  0.77118348     1.35240
V40         V  0.00024764  0.50116057  0.71139890     1.35170
C41         C  0.00232732  0.57427324  0.74246403     0.77300
C42         C  0.00149922  0.42757625  0.74141986     0.77350
C43         C  0.07444497  0.49854485  0.73650900     0.77220
C44         C  0.92890640  0.50338629  0.74549971     0.77180
O45         O  0.05709459  0.50301662  0.28503017    -0.71940
O46         O  0.94780430  0.50026906  0.28448131    -0.72160
O47         O  0.00368381  0.44705313  0.28323107    -0.72020
O48         O  0.00128258  0.55659472  0.28571850    -0.72030
O49         O  0.00105303  0.55762461  0.22331388    -0.71990
O50         O  0.00530029  0.44855952  0.22085876    -0.72010
O51         O  0.94876207  0.50146013  0.22210152    -0.71950
O52         O  0.05741593  0.50513672  0.22286602    -0.72140
V53         V  0.00243302  0.50176553  0.28345475     1.35240
V54         V  0.00312149  0.50309353  0.22354269     1.35170
C55         C  0.07596581  0.50498351  0.25393779     0.77300
C56         C  0.92977438  0.50051634  0.25316843     0.77350
C57         C  0.00532004  0.42929331  0.25153246     0.77220
C58         C  0.00103864  0.57562754  0.25477586     0.77180
C59         C  0.76127568  0.50246303  0.24169747    -0.02650
C60         C  0.24546500  0.50363196  0.24147075    -0.02650
O61         O  0.56179844  0.78119193  0.99674240    -0.71940
O62         O  0.45318406  0.79037406  0.99660808    -0.72160
O63         O  0.50648725  0.78496924  0.05120710    -0.72020
O64         O  0.50775630  0.78542296  0.94206058    -0.72030
O65         O  0.50391002  0.72275143  0.94214067    -0.71990
O66         O  0.50075541  0.72241287  0.05011822    -0.72010
O67         O  0.44811576  0.72781342  0.99462281    -0.71950
O68         O  0.55655728  0.71886044  0.99710814    -0.72140
V69         V  0.50731949  0.78433515  0.99664541     1.35240
V70         V  0.50247250  0.72422698  0.99609814     1.35170
C71         C  0.57784345  0.74843607  0.99706813     0.77300
C72         C  0.43228554  0.76071492  0.99476482     0.77350
C73         C  0.50286231  0.75335155  0.06900652     0.77220
C74         C  0.50516000  0.75393419  0.92370515     0.77180
C75         C  0.49970691  0.75398261  0.75450473    -0.02650
O76         O  0.54862232  0.99476121  0.78952586    -0.71940
O77         O  0.44068966  0.99750289  0.77998322    -0.72160
O78         O  0.49328212  0.94087097  0.78479518    -0.72020
O79         O  0.49639427  0.05129326  0.78190655    -0.72030
O80         O  0.50167476  0.04833746  0.71971843    -0.71990
O81         O  0.50009613  0.94028377  0.72267209    -0.72010
O82         O  0.44627652  0.99502360  0.71803599    -0.71950
O83         O  0.55510808  0.99283176  0.72740602    -0.72140
V84         V  0.49485803  0.99610207  0.78291947     1.35240
V85         V  0.50065410  0.99425199  0.72323113     1.35170
C86         C  0.57014911  0.99279977  0.76039214     0.77300
C87         C  0.42482947  0.99661067  0.74765002     0.77350
C88         C  0.49651112  0.92211966  0.75358873     0.77220
C89         C  0.49923091  0.06827874  0.74976644     0.77180
O90         O  0.50316189  0.27478477  0.05712194    -0.71940
O91         O  0.49736908  0.27298580  0.94822737    -0.72160
O92         O  0.44590468  0.27144243  0.00662834    -0.72020
O93         O  0.55458601  0.27544220  0.99879898    -0.72030
O94         O  0.55682610  0.21292369  0.00138189    -0.71990
O95         O  0.44812664  0.20872598  0.00512845    -0.72010
O96         O  0.50134589  0.21059208  0.94943362    -0.71950
O97         O  0.50346761  0.21210538  0.05771539    -0.72140
V98         V  0.50028185  0.27251267  0.00272494     1.35240
V99         V  0.50244971  0.21233650  0.00345538     1.35170
C100        C  0.50332085  0.24368874  0.07602738     0.77300
C101        C  0.49916299  0.24133698  0.93014107     0.77350
C102        C  0.42856525  0.23933492  0.00726840     0.77220
C103        C  0.57428959  0.24471549  0.99815604     0.77180
C104        C  0.49915349  0.23564432  0.75983862    -0.02650
O105        O  0.49775205  0.93916509  0.27305692    -0.71940
O106        O  0.49858802  0.04783583  0.28157946    -0.72160
O107        O  0.44387609  0.99369369  0.27468218    -0.72020
O108        O  0.55300213  0.99277194  0.27852060    -0.72030
O109        O  0.55532547  0.99662847  0.21628093    -0.71990
O110        O  0.44681739  0.00036599  0.21271509    -0.72010
O111        O  0.50331247  0.05291044  0.21952896    -0.71950
O112        O  0.49947284  0.94338215  0.21079465    -0.72140
V113        V  0.49839819  0.99352184  0.27574668     1.35240
V114        V  0.50111694  0.99818566  0.21601546     1.35170
C115        C  0.49776827  0.92279014  0.24075501     0.77300
C116        C  0.50178878  0.06884207  0.25222824     0.77350
C117        C  0.42684962  0.99696642  0.24291029     0.77220
C118        C  0.57263752  0.99462739  0.24781205     0.77180
C119        C  0.49978638  0.75274627  0.23706484    -0.02650
C120        C  0.49485646  0.23773863  0.24670793    -0.02650
O121        O  0.28698263  0.05802702  0.49941823    -0.71940
O122        O  0.28093680  0.94877558  0.50045612    -0.72160
O123        O  0.28516959  0.00308271  0.44520489    -0.72020
O124        O  0.28084913  0.00441468  0.55462137    -0.72030
O125        O  0.21845859  0.00323600  0.55191840    -0.71990
O126        O  0.22329643  0.01059974  0.44400284    -0.72010
O127        O  0.21913386  0.95211121  0.49427668    -0.71950
O128        O  0.22467029  0.06159843  0.50225979    -0.72140
V129        V  0.28235653  0.00355117  0.49986584     1.35240
V130        V  0.22258926  0.00681083  0.49806737     1.35170
C131        C  0.25701924  0.07836828  0.50189250     0.77300
C132        C  0.24921653  0.93158629  0.49693980     0.77350
C133        C  0.25474157  0.00773533  0.42598232     0.77220
C134        C  0.24852678  0.00365171  0.57166939     0.77180
C135        C  0.23480283  0.76112389  0.50175338    -0.02650
O136        O  0.70850470  0.05346573  0.49972834    -0.71940
O137        O  0.71468081  0.94451183  0.49245406    -0.72160
O138        O  0.71247698  0.99578634  0.55019212    -0.72020
O139        O  0.71181028  0.00236270  0.44185579    -0.72030
O140        O  0.77415093  0.99802865  0.44146099    -0.71990
O141        O  0.77389564  0.00614871  0.54998643    -0.72010
O142        O  0.77657128  0.94744217  0.49942071    -0.71950
O143        O  0.77043523  0.05696394  0.49179927    -0.72140
V144        V  0.71298880  0.99905347  0.49608506     1.35240
V145        V  0.77273105  0.00214751  0.49566081     1.35170
C146        C  0.73828526  0.07379216  0.49573311     0.77300
C147        C  0.74646954  0.92732866  0.49571464     0.77350
C148        C  0.74312059  0.00115664  0.56876772     0.77220
C149        C  0.74304376  0.99984490  0.42321961     0.77180
C150        C  0.75528660  0.75735882  0.50188734    -0.02650
O151        O  0.99349761  0.77510853  0.55404380    -0.71940
O152        O  0.00252314  0.77431588  0.44604983    -0.72160
O153        O  0.94364786  0.77666104  0.49606195    -0.72020
O154        O  0.05232991  0.77164346  0.50401002    -0.72030
O155        O  0.04971156  0.70915214  0.49819405    -0.71990
O156        O  0.94125258  0.71425034  0.50235075    -0.72010
O157        O  0.99391029  0.71210062  0.44571474    -0.71950
O158        O  0.99697902  0.71237789  0.55458060    -0.72140
V159        V  0.99799408  0.77329288  0.50002633     1.35240
V160        V  0.99550007  0.71309022  0.50016225     1.35170
C161        C  0.99459538  0.74399128  0.57270904     0.77300
C162        C  0.99824146  0.74338244  0.42748208     0.77350
C163        C  0.92398298  0.74612267  0.49930046     0.77220
C164        C  0.06946229  0.73946632  0.50136710     0.77180
O165        O  0.94330938  0.28744705  0.49976552    -0.71940
O166        O  0.05296805  0.28484440  0.49815595    -0.72160
O167        O  0.99804456  0.28671605  0.44448344    -0.72020
O168        O  0.99845940  0.28503375  0.55351317    -0.72030
O169        O  0.99740596  0.22226674  0.55209850    -0.71990
O170        O  0.99614164  0.22396640  0.44371217    -0.72010
O171        O  0.05115783  0.22234949  0.49656452    -0.71950
O172        O  0.94308009  0.22487025  0.49907733    -0.72140
V173        V  0.99818690  0.28490355  0.49895447     1.35240
V174        V  0.99701143  0.22467510  0.49789510     1.35170
C175        C  0.92446467  0.25623288  0.49993440     0.77300
C176        C  0.07080133  0.25296696  0.49692444     0.77350
C177        C  0.99669566  0.25546573  0.42566877     0.77220
C178        C  0.99753837  0.25319698  0.57124637     0.77180
C179        C  0.75492757  0.24102761  0.49960237    -0.02650
C180        C  0.24041453  0.24574049  0.50665475    -0.02650
C181        C  0.00472407  0.25984086  0.25689113    -0.02650
C182        C  0.74124747  0.00403129  0.25496184    -0.02650
C183        C  0.99880383  0.74553221  0.25935174    -0.02650
C184        C  0.25968069  0.99853984  0.25723553    -0.02650
C185        C  0.00299657  0.74441558  0.74057565    -0.02650
C186        C  0.25436578  0.00526061  0.73866440    -0.02650
C187        C  0.99853843  0.25773462  0.73992997    -0.02650
C188        C  0.73365765  0.99613142  0.73799366    -0.02650
C189        C  0.26366883  0.25944800  0.99970509    -0.02650
C190        C  0.26542701  0.74816008  0.99943391    -0.02650
C191        C  0.74380370  0.25213321  0.99692511    -0.02650
C192        C  0.74782000  0.73614224  0.99873274    -0.02650
C193        C  0.81863165  0.18966451  0.13468669     0.02970
C194        C  0.85114302  0.20545580  0.15222833    -0.13180
C195        C  0.86785569  0.18801355  0.18447618     0.00470
C196        C  0.85201523  0.15329826  0.19815506    -0.11710
C197        C  0.81894420  0.13720709  0.18144359     0.02960
C198        C  0.80211419  0.15613171  0.15023543    -0.11130
H199        H  0.86289760  0.23201038  0.14127614     0.08550
H200        H  0.86475300  0.13928855  0.22268837     0.06080
H201        H  0.77596320  0.14472065  0.13800294     0.05930
C202        C  0.13729141  0.81315833  0.18440531     0.02970
C203        C  0.15661709  0.84245863  0.20477430    -0.13180
C204        C  0.19251867  0.85645614  0.19197506     0.00470
C205        C  0.20929080  0.84006378  0.15891641    -0.11710
C206        C  0.18942354  0.81285143  0.13713849     0.02960
C207        C  0.15294731  0.80061528  0.14912512    -0.11130
H208        H  0.14373793  0.85440212  0.23058155     0.08550
H209        H  0.23750489  0.84935247  0.14930058     0.06080
H210        H  0.13706620  0.78131729  0.13080543     0.05930
C211        C  0.13143517  0.18958033  0.82190379     0.02970
C212        C  0.15268958  0.21230696  0.84738887    -0.13180
C213        C  0.18862406  0.19984594  0.86021033     0.00470
C214        C  0.20571055  0.16706164  0.84357381    -0.11710
C215        C  0.18508898  0.14270518  0.81856343     0.02960
C216        C  0.14674892  0.15357998  0.81035535    -0.11130
H217        H  0.14244745  0.24031484  0.85650671     0.08550
H218        H  0.23521957  0.16157994  0.85059996     0.06080
H219        H  0.12849760  0.13495660  0.79366571     0.05930
C220        C  0.86475037  0.81672654  0.18315418     0.02970
C221        C  0.84891801  0.85165795  0.19678308    -0.13180
C222        C  0.81644336  0.86823645  0.17970329     0.00470
C223        C  0.80176894  0.85080465  0.14635201    -0.11710
C224        C  0.81551988  0.81475912  0.13353724     0.02960
C225        C  0.84658210  0.79770663  0.15268636    -0.11130
H226        H  0.86160751  0.86577132  0.22125663     0.08550
H227        H  0.77930016  0.86509569  0.13048993     0.06080
H228        H  0.85632490  0.76924500  0.14410598     0.05930
C229        C  0.19130585  0.81552052  0.85958335     0.02970
C230        C  0.16015753  0.79714541  0.84123737    -0.13180
C231        C  0.13865135  0.81626578  0.81300609     0.00470
C232        C  0.15170032  0.85216903  0.79936630    -0.11710
C233        C  0.18447992  0.86928419  0.81462723     0.02960
C234        C  0.20225557  0.85247664  0.84629589    -0.11130
H235        H  0.15292121  0.76766381  0.84825649     0.08550
H236        H  0.13685271  0.86661767  0.77626613     0.06080
H237        H  0.22439491  0.86898594  0.86023834     0.05930
C238        C  0.85845704  0.18436029  0.80608001     0.02970
C239        C  0.84055990  0.15347189  0.78689506    -0.13180
C240        C  0.80731081  0.13619393  0.80212570     0.00470
C241        C  0.78973252  0.15185583  0.83501970    -0.11710
C242        C  0.80610910  0.18361456  0.85359416     0.02960
C243        C  0.84087019  0.19889093  0.83985498    -0.11130
H244        H  0.85227537  0.14251222  0.76013666     0.08550
H245        H  0.76368104  0.13898659  0.84647347     0.06080
H246        H  0.85419263  0.22192675  0.85600463     0.05930
C247        C  0.86306327  0.81392929  0.81282189     0.02970
C248        C  0.84450060  0.84468354  0.79387498    -0.13180
C249        C  0.81010054  0.86075602  0.80865179     0.00470
C250        C  0.79288516  0.84368926  0.84111574    -0.11710
C251        C  0.81156617  0.81414940  0.86089747     0.02960
C252        C  0.84734959  0.80086392  0.84780513    -0.11130
H253        H  0.85693007  0.85632768  0.76776944     0.08550
H254        H  0.76516766  0.85372025  0.85147580     0.06080
H255        H  0.86279521  0.78048304  0.86527878     0.05930
C256        C  0.19602396  0.19026036  0.13991375     0.02970
C257        C  0.21228151  0.15728935  0.15698514    -0.13180
C258        C  0.19345102  0.13874982  0.18758948     0.00470
C259        C  0.15806841  0.15303456  0.20072717    -0.11710
C260        C  0.14338334  0.18806459  0.18688248     0.02960
C261        C  0.16223552  0.20615790  0.15591299    -0.11130
H262        H  0.23928784  0.14577395  0.14626113     0.08550
H263        H  0.14223621  0.13680641  0.22209982     0.06080
H264        H  0.15039386  0.23242034  0.14397011     0.05930
C265        C  0.30918546  0.30807075  0.64923746     0.02970
C266        C  0.29383321  0.34221119  0.66539750    -0.13180
C267        C  0.31117419  0.36018275  0.69722286     0.00470
C268        C  0.34562273  0.34469740  0.71108319    -0.11710
C269        C  0.35954988  0.30934730  0.69727845     0.02960
C270        C  0.34044548  0.29042349  0.66748482    -0.11130
H271        H  0.26843093  0.35497094  0.65296347     0.08550
H272        H  0.36210883  0.36010326  0.73228973     0.06080
H273        H  0.35035497  0.26220223  0.65851484     0.05930
C274        C  0.63384487  0.31591903  0.31356991     0.02970
C275        C  0.65158195  0.29958817  0.34591357    -0.13180
C276        C  0.68512856  0.31547068  0.36195782     0.00470
C277        C  0.70012852  0.34945428  0.34536580    -0.11710
C278        C  0.68337113  0.36635059  0.31276195     0.02960
C279        C  0.64925538  0.35019522  0.29824155    -0.11130
H280        H  0.63924580  0.27383220  0.35823149     0.08550
H281        H  0.72502079  0.36308281  0.35775104     0.06080
H282        H  0.63454897  0.36423854  0.27497777     0.05930
C283        C  0.30944089  0.64166988  0.31761338     0.02970
C284        C  0.34390472  0.65594115  0.30202132    -0.13180
C285        C  0.36008008  0.69085688  0.31527140     0.00470
C286        C  0.34087154  0.71079379  0.34505162    -0.11710
C287        C  0.30840535  0.69486432  0.36316310     0.02960
C288        C  0.29240427  0.66057514  0.34903389    -0.11130
H289        H  0.35772169  0.63976420  0.27910725     0.08550
H290        H  0.35034531  0.73899462  0.35406144     0.06080
H291        H  0.26657672  0.64890818  0.36216904     0.05930
C292        C  0.30652802  0.36174877  0.31363429     0.02970
C293        C  0.34009836  0.34432866  0.29872091    -0.13180
C294        C  0.35827116  0.31383460  0.31805302     0.00470
C295        C  0.34137284  0.29919396  0.35169985    -0.11710
C296        C  0.30801623  0.31619597  0.36705852     0.02960
C297        C  0.29136953  0.34804472  0.34863042    -0.11130
H298        H  0.35240861  0.35469306  0.27198740     0.08550
H299        H  0.35414862  0.27457524  0.36592427     0.06080
H300        H  0.26717289  0.36240995  0.36215364     0.05930
C301        C  0.30628266  0.64201325  0.68887600     0.02970
C302        C  0.34215348  0.65485377  0.70117078    -0.13180
C303        C  0.35877752  0.68853601  0.68620723     0.00470
C304        C  0.34071279  0.70685687  0.65507887    -0.11710
C305        C  0.30493757  0.69397848  0.64143073     0.02960
C306        C  0.28769156  0.66162812  0.65907520    -0.11130
H307        H  0.35692823  0.63842687  0.72292780     0.08550
H308        H  0.35485002  0.73070844  0.64104949     0.06080
H309        H  0.26002492  0.65135032  0.64940613     0.05930
C310        C  0.68725541  0.30934060  0.64149836     0.02970
C311        C  0.70271450  0.34340238  0.65644922    -0.13180
C312        C  0.68908857  0.35875686  0.69132387     0.00470
C313        C  0.65669952  0.34167655  0.70889149    -0.11710
C314        C  0.64062224  0.30735973  0.69434973     0.02960
C315        C  0.65692270  0.29100649  0.66082787    -0.11130
H316        H  0.72507521  0.35810647  0.64043676     0.08550
H317        H  0.64365897  0.35578213  0.73334782     0.06080
H318        H  0.64570425  0.26426289  0.64929444     0.05930
C319        C  0.67823744  0.63098905  0.31978968     0.02970
C320        C  0.69199828  0.64520301  0.35497464    -0.13180
C321        C  0.67756468  0.67962481  0.37116078     0.00470
C322        C  0.64521077  0.69673380  0.35432300    -0.11710
C323        C  0.63080430  0.68308002  0.31924324     0.02960
C324        C  0.64834067  0.65090315  0.30168108    -0.11130
H325        H  0.71477662  0.62979319  0.36935722     0.08550
H326        H  0.63144396  0.72083974  0.36845433     0.06080
H327        H  0.63874867  0.64145656  0.27370636     0.05930
C328        C  0.69952858  0.64389463  0.69853630     0.02970
C329        C  0.66566145  0.65835427  0.71525194    -0.13180
C330        C  0.64654877  0.68955535  0.69845838     0.00470
C331        C  0.66109766  0.70595837  0.66460059    -0.11710
C332        C  0.69594715  0.69285462  0.64838113     0.02960
C333        C  0.71483653  0.66148293  0.66556876    -0.11130
H334        H  0.65366673  0.64471037  0.74063199     0.08550
H335        H  0.64511427  0.72889389  0.65087037     0.06080
H336        H  0.74121007  0.65026378  0.65305842     0.05930
C337        C  0.78408650  0.79213672  0.96413462    -0.26480
C338        C  0.76285371  0.75706362  0.96102537    -0.14550
C339        C  0.75382062  0.74510804  0.92247534     0.36080
C340        C  0.76986972  0.76476633  0.89093573    -0.25930
C341        C  0.79369068  0.79679868  0.89544210    -0.15170
C342        C  0.79992670  0.81141079  0.93247894     0.37160
N343        N  0.82237056  0.84558508  0.93935639    -0.89420
H344        H  0.78868810  0.80590394  0.99148411     0.18270
H345        H  0.76383154  0.75451817  0.86218854     0.18270
N346        N  0.72873721  0.71351859  0.91317248    -0.88450
H347        H  0.80409274  0.86632403  0.95154746     0.35640
H348        H  0.83311152  0.85751569  0.91397698     0.40740
H349        H  0.71891863  0.69888245  0.93708058     0.40360
H350        H  0.74453530  0.69336603  0.89711192     0.35250
C351        C  0.74215834  0.77299699  0.06400286    -0.26480
C352        C  0.76562357  0.75536285  0.03546809    -0.14550
C353        C  0.80623674  0.75515708  0.04243596     0.36080
C354        C  0.82135516  0.77590484  0.07326626    -0.25930
C355        C  0.79770058  0.79462612  0.10019973    -0.15170
C356        C  0.75761063  0.79196676  0.09595172     0.37160
N357        N  0.73217958  0.80718825  0.12479515    -0.89420
H358        H  0.71127034  0.77115262  0.06299376     0.18270
H359        H  0.85227950  0.77668995  0.07652503     0.18270
N360        N  0.83338024  0.73374244  0.01956489    -0.88450
H361        H  0.71526220  0.78455443  0.13529615     0.35640
H362        H  0.71400091  0.82724420  0.11179465     0.40740
H363        H  0.83123456  0.74072159  0.99062127     0.40360
H364        H  0.82898832  0.70424350  0.02362073     0.35250
C365        C  0.79765738  0.18245042  0.92374165    -0.26480
C366        C  0.78827331  0.19951298  0.88896363    -0.14550
C367        C  0.76278411  0.23120797  0.88886106     0.36080
C368        C  0.74847935  0.24566712  0.92388492    -0.25930
C369        C  0.75997320  0.23090464  0.95998129    -0.15170
C370        C  0.78354269  0.19668906  0.95886598     0.37160
N371        N  0.79254258  0.17449740  0.99224056    -0.89420
H372        H  0.81620435  0.15724821  0.92367869     0.18270
H373        H  0.72944148  0.27034976  0.92278378     0.18270
N374        N  0.75078488  0.24960367  0.85399054    -0.88450
H375        H  0.82245840  0.17264223  0.99429938     0.35640
H376        H  0.78220173  0.14642369  0.98835165     0.40740
H377        H  0.76262036  0.23625518  0.82973670     0.40360
H378        H  0.76126354  0.27788565  0.85435218     0.35250
C379        C  0.76045884  0.21440675  0.10178593    -0.26480
C380        C  0.80039149  0.20895849  0.10131398    -0.14550
C381        C  0.82140399  0.22094721  0.06855868     0.36080
C382        C  0.80206350  0.23723238  0.03766415    -0.25930
C383        C  0.76156862  0.23741139  0.03527096    -0.15170
C384        C  0.74086658  0.22878231  0.06977256     0.37160
N385        N  0.70065717  0.23665883  0.07408269    -0.89420
H386        H  0.74409224  0.20746785  0.12747343     0.18270
H387        H  0.81913275  0.24623909  0.01329173     0.18270
N388        N  0.86176805  0.21385775  0.06382579    -0.88450
H389        H  0.69707521  0.25665882  0.09636054     0.35640
H390        H  0.68690368  0.21123467  0.08263613     0.40740
H391        H  0.86762574  0.18500671  0.07037641     0.40360
H392        H  0.87737834  0.23210591  0.08162110     0.35250
C393        C  0.19094317  0.77081179  0.91674794    -0.26480
C394        C  0.21111816  0.79679456  0.89315350    -0.14550
C395        C  0.24921879  0.80562133  0.90344477     0.36080
C396        C  0.26335840  0.79304057  0.93884347    -0.25930
C397        C  0.24517059  0.76387930  0.96145164    -0.15170
C398        C  0.20766968  0.75335295  0.94904250     0.37160
N399        N  0.18482858  0.72629834  0.96956805    -0.89420
H400        H  0.16132239  0.76385193  0.91070960     0.18270
H401        H  0.28965188  0.80659458  0.94784241     0.18270
N402        N  0.27425266  0.82643902  0.87775744    -0.88450
H403        H  0.17762414  0.70379589  0.95092081     0.35640
H404        H  0.15944645  0.74003474  0.97840153     0.40740
H405        H  0.27789520  0.80956713  0.85306842     0.40360
H406        H  0.30157269  0.82997056  0.88947553     0.35250
C407        C  0.23707598  0.76948126  0.10638509    -0.26480
C408        C  0.20769222  0.79652636  0.10228293    -0.14550
C409        C  0.19793803  0.80929141  0.06545648     0.36080
C410        C  0.21722482  0.79435347  0.03332254    -0.25930
C411        C  0.24664346  0.76604780  0.03637828    -0.15170
C412        C  0.25718348  0.75452065  0.07460184     0.37160
N413        N  0.28799991  0.72811841  0.08297788    -0.89420
H414        H  0.24506349  0.76028812  0.13495256     0.18270
H415        H  0.20879542  0.80594523  0.00595152     0.18270
N416        N  0.16886466  0.83801843  0.05989499    -0.88450
H417        H  0.30736348  0.74253681  0.10073168     0.35640
H418        H  0.30398306  0.72051167  0.05889434     0.40740
H419        H  0.17657702  0.86283357  0.07511613     0.40360
H420        H  0.14297242  0.82765657  0.07125501     0.35250
C421        C  0.18653095  0.21934580  0.92834339    -0.26480
C422        C  0.20689779  0.21889941  0.89358007    -0.14550
C423        C  0.24461270  0.23364823  0.89267365     0.36080
C424        C  0.26151822  0.24610402  0.92689190    -0.25930
C425        C  0.24282908  0.24351757  0.96309182    -0.15170
C426        C  0.20324787  0.23231533  0.96250500     0.37160
N427        N  0.17885736  0.23519499  0.99574243    -0.89420
H428        H  0.15707270  0.20918725  0.92913921     0.18270
H429        H  0.29022343  0.25702513  0.92464649     0.18270
N430        N  0.26633987  0.23761655  0.85760661    -0.88450
H431        H  0.16753854  0.20783036  0.00152129     0.35640
H432        H  0.15592128  0.25354141  0.98931551     0.40740
H433        H  0.25000586  0.23091034  0.83355098     0.40360
H434        H  0.28922817  0.21806678  0.85855535     0.35250
C435        C  0.24001713  0.20334241  0.04037261    -0.26480
C436        C  0.24472566  0.24390060  0.03765076    -0.14550
C437        C  0.23626103  0.26595589  0.07140262     0.36080
C438        C  0.22024769  0.24785935  0.10394024    -0.25930
C439        C  0.21380375  0.20794469  0.10508622    -0.15170
C440        C  0.22388053  0.18544265  0.07282714     0.37160
N441        N  0.21685801  0.14451633  0.07266907    -0.89420
H442        H  0.24775021  0.18540585  0.01606284     0.18270
H443        H  0.21375394  0.26520118  0.12911412     0.18270
N444        N  0.24567857  0.30606628  0.07442347    -0.88450
H445        H  0.22608028  0.13209198  0.04680336     0.35640
H446        H  0.18712487  0.14044272  0.07425239     0.40740
H447        H  0.26457412  0.30961029  0.09731037     0.40360
H448        H  0.22050773  0.32128010  0.08112933     0.35250
C449        C  0.75804828  0.95657779  0.79419439    -0.26480
C450        C  0.75563746  0.95966477  0.75374126    -0.14550
C451        C  0.77099232  0.92815890  0.73174746     0.36080
C452        C  0.78890390  0.89692307  0.75025397    -0.25930
C453        C  0.79194898  0.89515884  0.79027266    -0.15170
C454        C  0.77698836  0.92595723  0.81239721     0.37160
N455        N  0.78171370  0.92656506  0.85336009    -0.89420
H456        H  0.74590814  0.97938449  0.81187750     0.18270
H457        H  0.79942849  0.87303756  0.73296133     0.18270
N458        N  0.76639930  0.92548786  0.69106658    -0.88450
H459        H  0.76906074  0.95121897  0.86541284     0.35640
H460        H  0.81114565  0.92842980  0.85879898     0.40740
H461        H  0.75133058  0.90017280  0.68483035     0.40360
H462        H  0.79369302  0.92313699  0.67845503     0.35250
C463        C  0.79082579  0.03288608  0.76914956    -0.26480
C464        C  0.75361323  0.03465494  0.75262432    -0.14550
C465        C  0.73820999  0.07298666  0.74765412     0.36080
C466        C  0.75647860  0.10491474  0.76421190    -0.25930
C467        C  0.79093679  0.10136962  0.78388921    -0.15170
C468        C  0.80884979  0.06491323  0.78570485     0.37160
N469        N  0.84510815  0.05886682  0.80434185    -0.89420
H470        H  0.80709187  0.00632618  0.76949662     0.18270
H471        H  0.74337577  0.13322008  0.76160056     0.18270
N472        N  0.70373259  0.08157500  0.72714089    -0.88450
H473        H  0.84037530  0.03972866  0.82706819     0.35640
H474        H  0.85574524  0.08412406  0.81658384     0.40740
H475        H  0.69045420  0.05708127  0.71741780     0.40360
H476        H  0.71143324  0.09766951  0.70287559     0.35250
C477        C  0.90019841  0.24207064  0.79515146    -0.26480
C478        C  0.89464806  0.20230088  0.79061526    -0.14550
C479        C  0.92437305  0.18057792  0.77299027     0.36080
C480        C  0.95641535  0.19972333  0.75703204    -0.25930
C481        C  0.96127900  0.24029514  0.75924257    -0.15170
C482        C  0.93357848  0.26067645  0.78263666     0.37160
N483        N  0.93937773  0.29818826  0.79908524    -0.89420
H484        H  0.87872305  0.25936825  0.80990695     0.18270
H485        H  0.97815578  0.18258921  0.74259785     0.18270
N486        N  0.92268785  0.13909828  0.77218478    -0.88450
H487        H  0.93209023  0.32031536  0.78037922     0.35640
H488        H  0.96649757  0.30092540  0.81123022     0.40740
H489        H  0.92353118  0.12943661  0.80056886     0.40360
H490        H  0.94684749  0.12752659  0.75827443     0.35250
C491        C  0.03509905  0.23970284  0.80138051    -0.26480
C492        C  0.03286315  0.23683391  0.76088897    -0.14550
C493        C  0.06066052  0.21206244  0.74264676     0.36080
C494        C  0.09276405  0.19935231  0.76319414    -0.25930
C495        C  0.09606572  0.20487991  0.80286129    -0.15170
C496        C  0.06540182  0.22358537  0.82238479     0.37160
N497        N  0.06262897  0.22471490  0.86342615    -0.89420
H498        H  0.01283673  0.25480420  0.81717182     0.18270
H499        H  0.11517339  0.18375009  0.74791465     0.18270
N500        N  0.05628611  0.19819851  0.70400608    -0.88450
H501        H  0.08353571  0.24298420  0.87448403     0.35640
H502        H  0.06662363  0.19680706  0.87407706     0.40740
H503        H  0.03304899  0.17915081  0.70387670     0.40360
H504        H  0.08017075  0.18217860  0.69486584     0.35250
C505        C  0.20216511  0.97201685  0.78161103    -0.26480
C506        C  0.23556120  0.96851529  0.75791569    -0.14550
C507        C  0.25140077  0.93044464  0.75361697     0.36080
C508        C  0.23450335  0.89907592  0.77313933    -0.25930
C509        C  0.20161153  0.90365309  0.79600968    -0.15170
C510        C  0.18511913  0.94027145  0.80011488     0.37160
N511        N  0.15100868  0.94509764  0.82326086    -0.89420
H512        H  0.18850282  0.99944564  0.78650209     0.18270
H513        H  0.24683225  0.87045645  0.77008999     0.18270
N514        N  0.28532501  0.92347987  0.73064785    -0.88450
H515        H  0.14189727  0.97387757  0.82317864     0.35640
H516        H  0.15811323  0.93852116  0.85159242     0.40740
H517        H  0.27848188  0.92722249  0.70184032     0.40360
H518        H  0.29462392  0.89489174  0.73325489     0.35250
C519        C  0.25514686  0.06014579  0.79045042    -0.26480
C520        C  0.23754851  0.04297627  0.75837039    -0.14550
C521        C  0.20166640  0.05947997  0.74721380     0.36080
C522        C  0.18737398  0.09278152  0.76534376    -0.25930
C523        C  0.20344080  0.10765559  0.79924634    -0.15170
C524        C  0.23687445  0.08876485  0.81300371     0.37160
N525        N  0.25153477  0.09677180  0.85060153    -0.89420
H526        H  0.28284928  0.05101302  0.79960273     0.18270
H527        H  0.16252410  0.10598125  0.75253771     0.18270
N528        N  0.17846364  0.04200210  0.71817938    -0.88450
H529        H  0.27581291  0.08003562  0.85641831     0.35640
H530        H  0.23042968  0.08856228  0.87050733     0.40740
H531        H  0.15178250  0.03504657  0.73033506     0.40360
H532        H  0.17397416  0.06227398  0.69647046     0.35250
C533        C  0.92715274  0.81932135  0.77937472    -0.26480
C534        C  0.89878279  0.79583433  0.79623701    -0.14550
C535        C  0.90463101  0.75533161  0.79541895     0.36080
C536        C  0.93869371  0.74003247  0.78022066    -0.25930
C537        C  0.96634452  0.76287765  0.76063684    -0.15170
C538        C  0.95996562  0.80353844  0.76121168     0.37160
N539        N  0.98667029  0.82923891  0.74312170    -0.89420
H540        H  0.92372948  0.85042050  0.77976190     0.18270
H541        H  0.94230454  0.70940727  0.78399810     0.18270
N542        N  0.87558224  0.72826418  0.80695654    -0.88450
H543        H  0.99679053  0.84844749  0.76387915     0.35640
H544        H  0.97200012  0.84519125  0.72243910     0.40740
H545        H  0.84930283  0.73608371  0.79491680     0.40360
H546        H  0.87336781  0.72717338  0.83675517     0.35250
C547        C  0.10081642  0.79902706  0.75549382    -0.26480
C548        C  0.10413061  0.79808324  0.79543154    -0.14550
C549        C  0.07294758  0.78341720  0.81725100     0.36080
C550        C  0.04127852  0.76723746  0.79857492    -0.25930
C551        C  0.03859442  0.76576575  0.75804952    -0.15170
C552        C  0.06771421  0.78609136  0.73676594     0.37160
N553        N  0.06362523  0.79586983  0.69692473    -0.89420
H554        H  0.12380765  0.81173149  0.73859406     0.18270
H555        H  0.01867409  0.75467198  0.81609793     0.18270
N556        N  0.07159660  0.78589590  0.85828932    -0.88450
H557        H  0.08846052  0.80880696  0.68581151     0.35640
H558        H  0.04185844  0.81649951  0.69482355     0.40740
H559        H  0.07636355  0.81455801  0.86641965     0.40360
H560        H  0.09293746  0.76840288  0.86984960     0.35250
C561        C  0.22599698  0.91939958  0.18653358    -0.26480
C562        C  0.21126792  0.89040611  0.21052239    -0.14550
C563        C  0.21428381  0.89534258  0.25076981     0.36080
C564        C  0.22885566  0.93011094  0.26555407    -0.25930
C565        C  0.24220332  0.96022062  0.24148677    -0.15170
C566        C  0.24243703  0.95302739  0.20129388     0.37160
N567        N  0.25832437  0.98058617  0.17495235    -0.89420
H568        H  0.22440408  0.91633161  0.15563836     0.18270
H569        H  0.23168186  0.93210862  0.29630256     0.18270
N570        N  0.20553896  0.86504030  0.27755908    -0.88450
H571        H  0.23691179  0.98880762  0.15577022     0.35640
H572        H  0.28022681  0.96698484  0.15922937     0.40740
H573        H  0.20211820  0.83841325  0.26397988     0.40360
H574        H  0.17983239  0.87219823  0.29162518     0.35250
C575        C  0.19007109  0.06925960  0.20345829    -0.26480
C576        C  0.21014455  0.10406111  0.20599547    -0.14550
C577        C  0.24379219  0.10547892  0.22835316     0.36080
C578        C  0.25752454  0.07152250  0.24535937    -0.25930
C579        C  0.23990496  0.03515651  0.23969664    -0.15170
C580        C  0.20358217  0.03536747  0.22076977     0.37160
N581        N  0.17884951  0.00232692  0.22037301    -0.89420
H582        H  0.16300201  0.06848416  0.18832536     0.18270
H583        H  0.28326869  0.07350232  0.26243557     0.18270
N584        N  0.26421232  0.14080179  0.23558162    -0.88450
H585        H  0.17291230  0.99542105  0.19181342     0.35640
H586        H  0.15283704  0.00992222  0.23363477     0.40740
H587        H  0.25056809  0.16473460  0.22372954     0.40360
H588        H  0.29120106  0.13849256  0.22233812     0.35250
C589        C  0.95998845  0.76465689  0.20097340    -0.26480
C590        C  0.96326583  0.76655714  0.24146594    -0.14550
C591        C  0.93492948  0.78958166  0.26136780     0.36080
C592        C  0.90278432  0.80302853  0.24188718    -0.25930
C593        C  0.89912464  0.79948644  0.20210584    -0.15170
C594        C  0.92909624  0.78137980  0.18120319     0.37160
N595        N  0.92856446  0.78047805  0.13996102    -0.89420
H596        H  0.98177251  0.74933405  0.18454592     0.18270
H597        H  0.88070300  0.81763259  0.25854181     0.18270
N598        N  0.93848559  0.80406163  0.29975262    -0.88450
H599        H  0.95268051  0.76600083  0.12901988     0.35640
H600        H  0.93046073  0.80898485  0.13030840     0.40740
H601        H  0.96610162  0.81294508  0.30687851     0.40360
H602        H  0.92418986  0.78677651  0.31976387     0.35250
C603        C  0.07334780  0.81954952  0.21759785    -0.26480
C604        C  0.10123900  0.79564799  0.20039477    -0.14550
C605        C  0.09508418  0.75524208  0.20118396     0.36080
C606        C  0.06149040  0.74034877  0.21753353    -0.25930
C607        C  0.03482972  0.76353933  0.23822347    -0.15170
C608        C  0.04099742  0.80421478  0.23671402     0.37160
N609        N  0.01474872  0.83036963  0.25500489    -0.89420
H610        H  0.07697649  0.85061465  0.21697445     0.18270
H611        H  0.05737747  0.70980134  0.21362861     0.18270
N612        N  0.12333757  0.72786894  0.18819795    -0.88450
H613        H  0.00398523  0.84902806  0.23413439     0.35640
H614        H  0.02991470  0.84689865  0.27489687     0.40740
H615        H  0.15001437  0.73484097  0.19986268     0.40360
H616        H  0.12487822  0.72766595  0.15833733     0.35250
C617        C  0.74050260  0.94016251  0.21483570    -0.26480
C618        C  0.76201894  0.96828512  0.23517549    -0.14550
C619        C  0.80302308  0.96339739  0.23409533     0.36080
C620        C  0.81960093  0.93152256  0.21529448    -0.25930
C621        C  0.79737242  0.90281222  0.19769919    -0.15170
C622        C  0.75708564  0.90686617  0.19876305     0.37160
N623        N  0.73268621  0.87666459  0.18446717    -0.89420
H624        H  0.71006961  0.94310480  0.21081856     0.18270
H625        H  0.85065016  0.92971897  0.21402999     0.18270
N626        N  0.82943305  0.99061162  0.25019758    -0.88450
H627        H  0.70365083  0.88402626  0.18726138     0.35640
H628        H  0.73689138  0.85235026  0.20167569     0.40740
H629        H  0.82226429  0.99698598  0.27857876     0.40360
H630        H  0.83015561  0.01562445  0.23364311     0.35250
C631        C  0.76408965  0.04253138  0.19677448    -0.26480
C632        C  0.76083274  0.04079331  0.23734268    -0.14550
C633        C  0.78051440  0.07028116  0.25836195     0.36080
C634        C  0.79708295  0.10152244  0.23906996    -0.25930
C635        C  0.80009035  0.10276410  0.19907389    -0.15170
C636        C  0.78482774  0.07159048  0.17765572     0.37160
N637        N  0.79093821  0.06734590  0.13694318    -0.89420
H638        H  0.75145557  0.01983130  0.17956975     0.18270
H639        H  0.80918615  0.12460793  0.25614644     0.18270
N640        N  0.78729499  0.06804221  0.29874297    -0.88450
H641        H  0.80300401  0.04004349  0.13223645     0.35640
H642        H  0.81185651  0.08644297  0.12694612     0.40740
H643        H  0.77698898  0.09332409  0.31170464     0.40360
H644        H  0.81696483  0.06692511  0.30308125     0.35250
C645        C  0.93930960  0.26244674  0.22121439    -0.26480
C646        C  0.96872362  0.23984743  0.23800209    -0.14550
C647        C  0.96405693  0.19870751  0.23545875     0.36080
C648        C  0.93131344  0.18289950  0.21822291    -0.25930
C649        C  0.90165769  0.20614228  0.20386732    -0.15170
C650        C  0.90517281  0.24652842  0.20738096     0.37160
N651        N  0.87366745  0.27160235  0.19783808    -0.89420
H652        H  0.94179523  0.29325548  0.21864584     0.18270
H653        H  0.92962769  0.15179828  0.21535313     0.18270
N654        N  0.99217545  0.17162052  0.24874854    -0.88450
H655        H  0.88071824  0.30059233  0.20232798     0.35640
H656        H  0.85099131  0.26535103  0.21670656     0.40740
H657        H  0.99998108  0.17771481  0.27690378     0.40360
H658        H  0.01627961  0.17211128  0.23078473     0.35250
C659        C  0.07878854  0.21940666  0.18137789    -0.26480
C660        C  0.10843893  0.20569076  0.20475826    -0.14550
C661        C  0.10445250  0.20973966  0.24490054     0.36080
C662        C  0.07067215  0.22478540  0.26048922    -0.25930
C663        C  0.04134197  0.24115521  0.23771002    -0.15170
C664        C  0.04568939  0.23735612  0.19697764     0.37160
N665        N  0.01559338  0.24928501  0.17149132    -0.89420
H666        H  0.08139763  0.21593796  0.15055999     0.18270
H667        H  0.06864220  0.22392560  0.29131235     0.18270
N668        N  0.13507205  0.20146378  0.27093815    -0.88450
H669        H  0.02218429  0.24176087  0.14311381     0.35640
H670        H  0.01352796  0.27930529  0.17200667     0.40740
H671        H  0.16021000  0.21489344  0.26119053     0.40360
H672        H  0.13935723  0.17178483  0.27309619     0.35250
C673        C  0.26524522  0.26886939  0.39928651    -0.26480
C674        C  0.29028524  0.30013805  0.40227454    -0.14550
C675        C  0.29828701  0.31538719  0.43868257     0.36080
C676        C  0.28191834  0.29859358  0.47149349    -0.25930
C677        C  0.25786159  0.26549379  0.46960915    -0.15170
C678        C  0.24875257  0.25178594  0.43204305     0.37160
N679        N  0.22322940  0.21986492  0.42673228    -0.89420
H680        H  0.25854245  0.25738376  0.37117238     0.18270
H681        H  0.28793648  0.31275764  0.49834447     0.18270
N682        N  0.32314638  0.34800303  0.44315108    -0.88450
H683        H  0.23784950  0.19830331  0.41141226     0.35640
H684        H  0.20022753  0.22921342  0.41003333     0.40740
H685        H  0.31166155  0.37116159  0.42783644     0.40360
H686        H  0.34995244  0.34109029  0.43118084     0.35250
C687        C  0.29659919  0.26320851  0.54962007    -0.26480
C688        C  0.25625721  0.26356341  0.54493021    -0.14550
C689        C  0.23382988  0.27645371  0.57714925     0.36080
C690        C  0.25196192  0.28958189  0.61061527    -0.25930
C691        C  0.29204909  0.29110229  0.61374910    -0.15170
C692        C  0.31452681  0.27835242  0.58207101     0.37160
N693        N  0.35546167  0.28272410  0.58042444    -0.89420
H694        H  0.31480973  0.25232394  0.52661749     0.18270
H695        H  0.23414302  0.29848115  0.63473255     0.18270
N696        N  0.19275027  0.27467909  0.57775348    -0.88450
H697        H  0.36844854  0.26352939  0.59928653     0.35640
H698        H  0.36257014  0.31112423  0.58768345     0.40740
H699        H  0.18219012  0.30255360  0.58270997     0.40360
H700        H  0.18400348  0.25749101  0.60086210     0.35250
C701        C  0.68134226  0.27645506  0.42292584    -0.26480
C702        C  0.70405553  0.29631473  0.39588710    -0.14550
C703        C  0.74440776  0.29587926  0.40103241     0.36080
C704        C  0.76018394  0.27920430  0.43432435    -0.25930
C705        C  0.73728860  0.26075331  0.46273828    -0.15170
C706        C  0.69736643  0.25731390  0.45443833     0.37160
N707        N  0.67244794  0.23478885  0.47854502    -0.89420
H708        H  0.65044754  0.27555490  0.42003546     0.18270
H709        H  0.79101466  0.27871022  0.43601602     0.18270
N710        N  0.76969275  0.31073346  0.37172028    -0.88450
H711        H  0.65014858  0.25248933  0.48859521     0.35640
H712        H  0.66034049  0.21301453  0.46172637     0.40740
H713        H  0.76649316  0.29342389  0.34734566     0.40360
H714        H  0.79845066  0.30851905  0.37983347     0.35250
C715        C  0.70883391  0.28870971  0.53661793    -0.26480
C716        C  0.73894849  0.26082356  0.53789066    -0.14550
C717        C  0.75297519  0.25219672  0.57578889     0.36080
C718        C  0.73558767  0.26838223  0.60847302    -0.25930
C719        C  0.70381232  0.29257897  0.60595164    -0.15170
C720        C  0.68978730  0.30238862  0.56977938     0.37160
N721        N  0.65580645  0.32583375  0.56681300    -0.89420
H722        H  0.69918570  0.30068221  0.51001766     0.18270
H723        H  0.74704236  0.26167772  0.63652409     0.18270
N724        N  0.78500529  0.22758707  0.58326773    -0.88450
H725        H  0.64798981  0.32925712  0.53813073     0.35640
H726        H  0.66227674  0.35330599  0.57739151     0.40740
H727        H  0.81034074  0.24017795  0.57323699     0.40360
H728        H  0.78024839  0.20031204  0.57177375     0.35250
C729        C  0.13496305  0.28552082  0.49814905    -0.26480
C730        C  0.11352320  0.25128023  0.49635964    -0.14550
C731        C  0.13336309  0.21589406  0.49348241     0.36080
C732        C  0.17342847  0.21563730  0.49466574    -0.25930
C733        C  0.19561705  0.24922510  0.50180906    -0.15170
C734        C  0.17527975  0.28525179  0.50038388     0.37160
N735        N  0.19358555  0.32229241  0.50320872    -0.89420
H736        H  0.12023268  0.31310736  0.49882813     0.18270
H737        H  0.18687013  0.18813920  0.48918907     0.18270
N738        N  0.11307429  0.17996093  0.48908141    -0.88450
H739        H  0.19246391  0.33530599  0.47620286     0.35640
H740        H  0.22216597  0.32040639  0.51099246     0.40740
H741        H  0.10009720  0.17366966  0.51551636     0.40360
H742        H  0.13201800  0.15712358  0.48351412     0.35250
C743        C  0.02773825  0.26980919  0.63219192    -0.26480
C744        C  0.99744520  0.25204674  0.61336835    -0.14550
C745        C  0.96857905  0.23325200  0.63498085     0.36080
C746        C  0.97069005  0.23325917  0.67511697    -0.25930
C747        C  0.00089123  0.25167146  0.69522466    -0.15170
C748        C  0.03074423  0.26928151  0.67213789     0.37160
N749        N  0.06451203  0.28746767  0.68749820    -0.89420
H750        H  0.05013575  0.28380274  0.61542717     0.18270
H751        H  0.94641389  0.22089642  0.68993113     0.18270
N752        N  0.93563564  0.21544613  0.61759420    -0.88450
H753        H  0.08851554  0.27351339  0.67562771     0.35640
H754        H  0.06718427  0.28375455  0.71679832     0.40740
H755        H  0.93566017  0.21859146  0.58786046     0.40360
H756        H  0.91118202  0.23006711  0.62755506     0.35250
C757        C  0.02659336  0.27649551  0.36561929    -0.26480
C758        C  0.99750694  0.25560837  0.38356642    -0.14550
C759        C  0.97153314  0.23427698  0.36113553     0.36080
C760        C  0.97545510  0.23457772  0.32112829    -0.25930
C761        C  0.00509537  0.25524153  0.30187679    -0.15170
C762        C  0.03129419  0.27658159  0.32585706     0.37160
N763        N  0.06310524  0.29918008  0.31179715    -0.89420
H764        H  0.04678887  0.29259387  0.38295866     0.18270
H765        H  0.95328069  0.21977732  0.30556267     0.18270
N766        N  0.93929121  0.21394784  0.37746242    -0.88450
H767        H  0.05615109  0.32837442  0.31526722     0.35640
H768        H  0.06987685  0.29443199  0.28319464     0.40740
H769        H  0.93618773  0.21883642  0.40686142     0.40360
H770        H  0.94409632  0.18440035  0.37344937     0.35250
C771        C  0.86546367  0.21802767  0.50357470    -0.26480
C772        C  0.88178251  0.25466288  0.50129546    -0.14550
C773        C  0.85721442  0.28714758  0.50125826     0.36080
C774        C  0.81690508  0.28159720  0.50181441    -0.25930
C775        C  0.80005045  0.24429925  0.50094309    -0.15170
C776        C  0.82604312  0.21219996  0.50471161     0.37160
N777        N  0.81391255  0.17346506  0.51267057    -0.89420
H778        H  0.88360523  0.19266408  0.50570745     0.18270
H779        H  0.79824966  0.30666779  0.50182300     0.18270
N780        N  0.87291961  0.32548275  0.50019702    -0.88450
H781        H  0.82490865  0.15539026  0.49110936     0.35640
H782        H  0.82602615  0.16458481  0.53855726     0.40740
H783        H  0.88681506  0.33020694  0.52624930     0.40360
H784        H  0.85093274  0.34601557  0.49873482     0.35250
C785        C  0.02551677  0.72666761  0.63276904    -0.26480
C786        C  0.99493289  0.74478296  0.61469473    -0.14550
C787        C  0.96698573  0.76455585  0.63687099     0.36080
C788        C  0.97050039  0.76559799  0.67686711    -0.25930
C789        C  0.00169468  0.74791949  0.69587757    -0.15170
C790        C  0.02939300  0.72804251  0.67253114     0.37160
N791        N  0.06193964  0.70926574  0.68913445    -0.89420
H792        H  0.04720557  0.71178138  0.61574231     0.18270
H793        H  0.94734546  0.77920334  0.69258961     0.18270
N794        N  0.93353078  0.78206764  0.62028034    -0.88450
H795        H  0.08692333  0.72107962  0.67712499     0.35640
H796        H  0.06105919  0.68002101  0.68164163     0.40740
H797        H  0.93160876  0.77678660  0.59089107     0.40360
H798        H  0.93580516  0.81193561  0.62403095     0.35250
C799        C  0.02906898  0.76149061  0.36641077    -0.26480
C800        C  0.99803010  0.74428235  0.38549710    -0.14550
C801        C  0.96759922  0.72878392  0.36414346     0.36080
C802        C  0.96927917  0.73075130  0.32426453    -0.25930
C803        C  0.99978226  0.74895017  0.30399245    -0.15170
C804        C  0.03100516  0.76310643  0.32621473     0.37160
N805        N  0.06583487  0.77692408  0.30906789    -0.89420
H806        H  0.05289074  0.77263391  0.38292696     0.18270
H807        H  0.94549618  0.71854243  0.30864504     0.18270
N808        N  0.93363142  0.71252046  0.38151947    -0.88450
H809        H  0.08846833  0.75944804  0.31825103     0.35640
H810        H  0.07075098  0.80498402  0.31900133     0.40740
H811        H  0.93287221  0.71595520  0.41123375     0.40360
H812        H  0.93364999  0.68289385  0.37568542     0.35250
C813        C  0.75516837  0.71708191  0.43864936    -0.26480
C814        C  0.73406708  0.73706748  0.46752428    -0.14550
C815        C  0.69296059  0.73570202  0.46446113     0.36080
C816        C  0.67565327  0.71675734  0.43343990    -0.25930
C817        C  0.69729629  0.69871768  0.40431755    -0.15170
C818        C  0.73774300  0.70010855  0.40661304     0.37160
N819        N  0.76137770  0.68509456  0.37590503    -0.89420
H820        H  0.78582930  0.71388152  0.44037268     0.18270
H821        H  0.64458087  0.71546799  0.43274401     0.18270
N822        N  0.66732756  0.75157132  0.49287977    -0.88450
H823        H  0.79057701  0.68825921  0.38192676     0.35640
H824        H  0.75610005  0.70177644  0.35153624     0.40740
H825        H  0.67415887  0.78022727  0.49882778     0.40360
H826        H  0.66840180  0.73504029  0.51781501     0.35250
C827        C  0.72187688  0.76397737  0.56878288    -0.26480
C828        C  0.73780845  0.73979021  0.53981680    -0.14550
C829        C  0.73675532  0.69905145  0.54719499     0.36080
C830        C  0.72365222  0.68521557  0.58267843    -0.25930
C831        C  0.71129679  0.71006623  0.61213922    -0.15170
C832        C  0.71166466  0.75030625  0.60525377     0.37160
N833        N  0.70299478  0.77843500  0.63463707    -0.89420
H834        H  0.71789970  0.79448053  0.56432883     0.18270
H835        H  0.72240533  0.65423731  0.58689880     0.18270
N836        N  0.74783667  0.67039698  0.51941646    -0.88450
H837        H  0.72568294  0.79820562  0.63517512     0.35640
H838        H  0.70354630  0.76597728  0.66183367     0.40740
H839        H  0.77529220  0.67587020  0.50858337     0.40360
H840        H  0.72791178  0.66975672  0.49727241     0.35250
C841        C  0.86277877  0.76680466  0.47057631    -0.26480
C842        C  0.88184043  0.74743028  0.49980462    -0.14550
C843        C  0.86063135  0.73005319  0.52956888     0.36080
C844        C  0.82042905  0.73283681  0.52972708    -0.25930
C845        C  0.80006504  0.75127466  0.49977694    -0.15170
C846        C  0.82259547  0.76875616  0.46998387     0.37160
N847        N  0.80477367  0.78903962  0.43904509    -0.89420
H848        H  0.87923660  0.78034116  0.44772135     0.18270
H849        H  0.80570229  0.72140071  0.55448924     0.18270
N850        N  0.88009952  0.71142873  0.56075451    -0.88450
H851        H  0.81469434  0.81753219  0.43926522     0.35640
H852        H  0.81364266  0.77630533  0.41320110     0.40740
H853        H  0.89280846  0.68624188  0.54997839     0.40360
H854        H  0.86051024  0.70252995  0.58186480     0.35250
C855        C  0.74930857  0.13541414  0.46252095    -0.26480
C856        C  0.73563199  0.11614559  0.49489730    -0.14550
C857        C  0.72090847  0.13742172  0.52614419     0.36080
C858        C  0.72399833  0.17793885  0.52598796    -0.25930
C859        C  0.74310926  0.19768531  0.49583235    -0.15170
C860        C  0.75274847  0.17575643  0.46205728     0.37160
N861        N  0.76865192  0.19383080  0.42832375    -0.89420
H862        H  0.75906245  0.11866337  0.43796875     0.18270
H863        H  0.71282486  0.19346263  0.55052948     0.18270
N864        N  0.70495416  0.11771014  0.55887527    -0.88450
H865        H  0.77089229  0.17412790  0.40563222     0.35640
H866        H  0.79666213  0.20250054  0.43427881     0.40740
H867        H  0.67966153  0.10419948  0.55012714     0.40360
H868        H  0.69702384  0.13744099  0.58028682     0.35250
C869        C  0.76988588  0.86678537  0.52436920    -0.26480
C870        C  0.74814260  0.88480792  0.49620482    -0.14550
C871        C  0.72836173  0.86214503  0.46925585     0.36080
C872        C  0.73071677  0.82162787  0.47124196    -0.25930
C873        C  0.75101258  0.80257794  0.50078910    -0.15170
C874        C  0.77145639  0.82652054  0.52719010     0.37160
N875        N  0.79406909  0.81008240  0.55722220    -0.89420
H876        H  0.78537324  0.88417483  0.54499219     0.18270
H877        H  0.71694451  0.80538581  0.44883529     0.18270
N878        N  0.70739707  0.88030558  0.43881260    -0.88450
H879        H  0.82242702  0.81944765  0.55363114     0.35640
H880        H  0.78389537  0.82072532  0.58352497     0.40740
H881        H  0.68324164  0.89360347  0.45103754     0.40360
H882        H  0.69692212  0.85965768  0.41965960     0.35250
C883        C  0.70586957  0.00098986  0.62887066    -0.26480
C884        C  0.74194512  0.00173749  0.61130820    -0.14550
C885        C  0.77485914  0.00383256  0.63457190     0.36080
C886        C  0.77048198  0.00364436  0.67483706    -0.25930
C887        C  0.73415697  0.99943335  0.69307268    -0.15170
C888        C  0.70117745  0.00080795  0.66855871     0.37160
N889        N  0.66243814  0.00439449  0.68236932    -0.89420
H890        H  0.68017871  0.00135229  0.61152084     0.18270
H891        H  0.79603513  0.00445905  0.69229896     0.18270
N892        N  0.81260612  0.00545715  0.61758109    -0.88450
H893        H  0.65069727  0.02995511  0.67158357     0.35640
H894        H  0.64637427  0.98156832  0.67115725     0.40740
H895        H  0.81770235  0.97890354  0.60411540     0.40360
H896        H  0.83352453  0.00822488  0.63874420     0.35250
C897        C  0.76361163  0.97380162  0.31952710    -0.26480
C898        C  0.74377081  0.00328131  0.29973072    -0.14550
C899        C  0.72169327  0.02997901  0.32238449     0.36080
C900        C  0.72143923  0.02757114  0.36235048    -0.25930
C901        C  0.74314570  0.99978380  0.38116774    -0.15170
C902        C  0.76441221  0.97254630  0.35982486     0.37160
N903        N  0.78603524  0.94314683  0.37919563    -0.89420
H904        H  0.77836150  0.95111075  0.30410425     0.18270
H905        H  0.70480803  0.04836899  0.37887479     0.18270
N906        N  0.69966896  0.06008683  0.30484656    -0.88450
H907        H  0.80036703  0.92538618  0.35941524     0.35640
H908        H  0.76651226  0.92558379  0.39399237     0.40740
H909        H  0.70865450  0.08667393  0.31578114     0.40360
H910        H  0.67086849  0.05636365  0.31282010     0.35250
C911        C  0.29035530  0.72362834  0.46672131    -0.26480
C912        C  0.25626123  0.74604807  0.46455093    -0.14550
C913        C  0.24366908  0.75578382  0.42689183     0.36080
C914        C  0.26111991  0.73909502  0.39431087    -0.25930
C915        C  0.29191285  0.71357619  0.39775118    -0.15170
C916        C  0.30728110  0.70637579  0.43413079     0.37160
N917        N  0.33962775  0.68081441  0.43791779    -0.89420
H918        H  0.30440547  0.71897811  0.49375643     0.18270
H919        H  0.25022329  0.74586821  0.36607302     0.18270
N920        N  0.21265229  0.78220969  0.42128627    -0.88450
H921        H  0.34682733  0.67737327  0.46676634     0.35640
H922        H  0.36322898  0.69386611  0.42448871     0.40740
H923        H  0.19131389  0.76827422  0.40553201     0.40360
H924        H  0.22290098  0.80534050  0.40490876     0.35250
C925        C  0.26683487  0.76809841  0.56928621    -0.26480
C926        C  0.25358894  0.74426694  0.53908792    -0.14550
C927        C  0.25450516  0.70364753  0.54557421     0.36080
C928        C  0.27199965  0.68844907  0.57838032    -0.25930
C929        C  0.28668991  0.71238440  0.60723984    -0.15170
C930        C  0.28228583  0.75286598  0.60310250     0.37160
N931        N  0.28998910  0.77932507  0.63377891    -0.89420
H932        H  0.26315580  0.79902680  0.56830966     0.18270
H933        H  0.27393001  0.65735177  0.58124508     0.18270
N934        N  0.23798270  0.67740744  0.51849633    -0.88450
H935        H  0.31945465  0.78133696  0.63824203     0.35640
H936        H  0.27636448  0.76949901  0.65877232     0.40740
H937        H  0.21663236  0.66153759  0.53266178     0.40360
H938        H  0.25932464  0.65811684  0.50932209     0.35250
C939        C  0.17475549  0.72490284  0.47602620    -0.26480
C940        C  0.19221617  0.74761546  0.50475066    -0.14550
C941        C  0.16864845  0.75938468  0.53638088     0.36080
C942        C  0.12887554  0.75431135  0.53507574    -0.25930
C943        C  0.11150655  0.73759833  0.50320502    -0.15170
C944        C  0.13471838  0.72135257  0.47378636     0.37160
N945        N  0.11908230  0.70281528  0.44038647    -0.89420
H946        H  0.19163624  0.71126892  0.45368019     0.18270
H947        H  0.11120839  0.76552309  0.55837450     0.18270
N948        N  0.18435177  0.77986877  0.56832233    -0.88450
H949        H  0.12754721  0.71893876  0.41642002     0.35640
H950        H  0.08915560  0.70304543  0.44051725     0.40740
H951        H  0.17769505  0.76450032  0.59330370     0.40360
H952        H  0.17107751  0.80692192  0.57020699     0.35250
C953        C  0.23962893  0.13792146  0.53619859    -0.26480
C954        C  0.25955786  0.12059096  0.50592410    -0.14550
C955        C  0.28099526  0.14374625  0.48039545     0.36080
C956        C  0.27801195  0.18428716  0.48305130    -0.25930
C957        C  0.25263730  0.20213481  0.50972168    -0.15170
C958        C  0.23691008  0.17806419  0.53913587     0.37160
N959        N  0.21504542  0.19390327  0.57034492    -0.89420
H960        H  0.22499476  0.12008494  0.55728579     0.18270
H961        H  0.29457677  0.20147099  0.46309128     0.18270
N962        N  0.30387446  0.12613676  0.45057397    -0.88450
H963        H  0.22795277  0.18539324  0.59594910     0.35640
H964        H  0.18738781  0.18216079  0.56975676     0.40740
H965        H  0.32663233  0.11172053  0.46369098     0.40360
H966        H  0.31624086  0.14721481  0.43294384     0.35250
C967        C  0.25636276  0.03835750  0.63243752    -0.26480
C968        C  0.24544197  0.00455344  0.61365040    -0.14550
C969        C  0.22924131  0.97393393  0.63501086     0.36080
C970        C  0.22806384  0.97645812  0.67510458    -0.25930
C971        C  0.24468772  0.00786441  0.69491830    -0.15170
C972        C  0.25550828  0.04098853  0.67260983     0.37160
N973        N  0.26751244  0.07645097  0.69056896    -0.89420
H974        H  0.26641233  0.06268544  0.61557930     0.18270
H975        H  0.21585411  0.95223406  0.69034126     0.18270
N976        N  0.21559649  0.93896625  0.61742035    -0.88450
H977        H  0.27256904  0.09792158  0.67009176     0.35640
H978        H  0.29363958  0.07184052  0.70425017     0.40740
H979        H  0.21983189  0.93880155  0.58775716     0.40360
H980        H  0.18596813  0.93741428  0.62237290     0.35250
C981        C  0.22149742  0.00230499  0.36298515    -0.26480
C982        C  0.25535232  0.00950558  0.38348395    -0.14550
C983        C  0.28884151  0.01941076  0.36301377     0.36080
C984        C  0.28868817  0.01798097  0.32286559    -0.25930
C985        C  0.25650959  0.00458162  0.30181680    -0.15170
C986        C  0.22152960  0.00087643  0.32264464     0.37160
N987        N  0.18593253  0.99533452  0.30322738    -0.89420
H988        H  0.19477466  0.99711373  0.37830897     0.18270
H989        H  0.31448459  0.02745306  0.30823652     0.18270
N990        N  0.32284985  0.03140584  0.38291110    -0.88450
H991        H  0.16773096  0.01829872  0.31052372     0.35640
H992        H  0.17325634  0.96994157  0.31341966     0.40740
H993        H  0.31656651  0.05755274  0.39667614     0.40360
H994        H  0.34533327  0.03699570  0.36360852     0.35250
C995        C  0.21065937  0.87188156  0.49219328    -0.26480
C996        C  0.24681178  0.88861245  0.49633840    -0.14550
C997        C  0.27916473  0.86404630  0.49941183     0.36080
C998        C  0.27392875  0.82365525  0.50043961    -0.25930
C999        C  0.23713725  0.80642499  0.49918468    -0.15170
C1000       C  0.20539092  0.83189083  0.49209500     0.37160
N1001       N  0.16793075  0.81837227  0.48197113    -0.89420
H1002       H  0.18571499  0.89007665  0.48786744     0.18270
H1003       H  0.29892735  0.80519648  0.50299896     0.18270
N1004       N  0.31723605  0.87987615  0.50165955    -0.88450
H1005       H  0.16110586  0.82916325  0.45487074     0.35640
H1006       H  0.14802103  0.82990797  0.50154541     0.40740
H1007       H  0.32356031  0.89250446  0.47511882     0.40360
H1008       H  0.33753838  0.85796387  0.50545785     0.35250
C1009       C  0.45861262  0.27065139  0.30286784    -0.26480
C1010       C  0.45702808  0.25635342  0.26453286    -0.14550
C1011       C  0.42103854  0.26265637  0.24525891     0.36080
C1012       C  0.39060294  0.28155609  0.26368809    -0.25930
C1013       C  0.39313591  0.29540746  0.30102796    -0.15170
C1014       C  0.42797457  0.29035777  0.32083142     0.37160
N1015       N  0.43422013  0.30617263  0.35842936    -0.89420
H1016       H  0.48435102  0.26666705  0.31959690     0.18270
H1017       H  0.36369179  0.28467107  0.24851108     0.18270
N1018       N  0.41166250  0.24842049  0.20820686    -0.88450
H1019       H  0.43631001  0.28310833  0.37760300     0.35640
H1020       H  0.41147917  0.32363550  0.36760089     0.40740
H1021       H  0.41151803  0.21853043  0.20897398     0.40360
H1022       H  0.42851651  0.26101253  0.18678282     0.35250
C1023       C  0.56257274  0.23933111  0.28022131    -0.26480
C1024       C  0.53144517  0.26030095  0.26393730    -0.14550
C1025       C  0.53493047  0.30195615  0.26712913     0.36080
C1026       C  0.56792828  0.31869065  0.28382406    -0.25930
C1027       C  0.59954575  0.29666481  0.29567928    -0.15170
C1028       C  0.59694542  0.25622955  0.29181542     0.37160
N1029       N  0.62917455  0.23085818  0.29724082    -0.89420
H1030       H  0.56202953  0.20872469  0.28455135     0.18270
H1031       H  0.56873464  0.34977013  0.28738444     0.18270
N1032       N  0.50545819  0.32889466  0.25583267    -0.88450
H1033       H  0.62680479  0.21812693  0.32432248     0.35640
H1034       H  0.65533719  0.24535874  0.29457997     0.40740
H1035       H  0.48376322  0.31618301  0.23999620     0.40360
H1036       H  0.51796434  0.34903909  0.23721758     0.35250
C1037       C  0.45822298  0.73855722  0.29646593    -0.26480
C1038       C  0.46242030  0.73514185  0.25611870    -0.14550
C1039       C  0.43370828  0.71301901  0.23694859     0.36080
C1040       C  0.40005176  0.70207880  0.25648478    -0.25930
C1041       C  0.39555740  0.70687942  0.29626903    -0.15170
C1042       C  0.42637266  0.72392590  0.31660117     0.37160
N1043       N  0.42797585  0.72450031  0.35767683    -0.89420
H1044       H  0.48054502  0.75266362  0.31280099     0.18270
H1045       H  0.37780179  0.68793770  0.24012161     0.18270
N1046       N  0.43915740  0.69826687  0.19886386    -0.88450
H1047       H  0.42095556  0.69716552  0.36829567     0.35640
H1048       H  0.40911692  0.74522452  0.36863779     0.40740
H1049       H  0.41610265  0.70737144  0.18208116     0.40360
H1050       H  0.43852020  0.66810053  0.20003677     0.35250
C1051       C  0.56744097  0.67843632  0.28703904    -0.26480
C1052       C  0.59727846  0.70182248  0.30060278    -0.14550
C1053       C  0.59490785  0.74206960  0.29461893     0.36080
C1054       C  0.56284608  0.75766995  0.27657672    -0.25930
C1055       C  0.53420338  0.73441533  0.25941959    -0.15170
C1056       C  0.53650782  0.69389755  0.26648894     0.37160
N1057       N  0.50750896  0.66799541  0.25292989    -0.89420
H1058       H  0.56840097  0.64753518  0.29188002     0.18270
H1059       H  0.56160659  0.78868159  0.27615162     0.18270
N1060       N  0.62550582  0.76801745  0.30405055    -0.88450
H1061       H  0.49492843  0.65456281  0.27676685     0.35640
H1062       H  0.52055658  0.64644245  0.23627900     0.40740
H1063       H  0.65138873  0.75710729  0.29305498     0.40360
H1064       H  0.62724051  0.77137032  0.33368498     0.35250
C1065       C  0.47610039  0.12983682  0.27904464    -0.26480
C1066       C  0.50333666  0.11103283  0.25610744    -0.14550
C1067       C  0.53116616  0.13263744  0.23657164     0.36080
C1068       C  0.52863062  0.17294902  0.23708244    -0.25930
C1069       C  0.49859166  0.19334523  0.25673406    -0.15170
C1070       C  0.47318914  0.17016934  0.28001061     0.37160
N1071       N  0.44448313  0.18499406  0.30565946    -0.89420
H1072       H  0.45570018  0.11282190  0.29554074     0.18270
H1073       H  0.54929849  0.18898138  0.21998263     0.18270
N1074       N  0.56137494  0.11353576  0.21546276    -0.88450
H1075       H  0.42264360  0.19885685  0.29076022     0.35640
H1076       H  0.45728471  0.20208222  0.32660334     0.40740
H1077       H  0.57831517  0.09905244  0.23543953     0.40360
H1078       H  0.57928411  0.13367326  0.20196046     0.35250
C1079       C  0.63346719  0.02523217  0.22787774    -0.26480
C1080       C  0.61481476  0.99594482  0.24828307    -0.14550
C1081       C  0.63650761  0.96862804  0.26823506     0.36080
C1082       C  0.67665301  0.97133396  0.26732243    -0.25930
C1083       C  0.69656325  0.00184426  0.24826084    -0.15170
C1084       C  0.67350685  0.02960390  0.22874688     0.37160
N1085       N  0.68927135  0.06363817  0.21166813    -0.89420
H1086       H  0.61655330  0.04623763  0.21239428     0.18270
H1087       H  0.69295608  0.94965043  0.28255096     0.18270
N1088       N  0.61785485  0.93756874  0.28841286    -0.88450
H1089       H  0.67683999  0.08774775  0.22500293     0.35640
H1090       H  0.68173928  0.06400409  0.18269056     0.40740
H1091       H  0.60304729  0.94952882  0.31181217     0.40360
H1092       H  0.63816479  0.91867065  0.29989489     0.35250
C1093       C  0.36591853  0.96769754  0.26361489    -0.26480
C1094       C  0.38464113  0.99532047  0.24129323    -0.14550
C1095       C  0.36290479  0.02014029  0.21796331     0.36080
C1096       C  0.32247271  0.01895364  0.22027228    -0.25930
C1097       C  0.30327280  0.99421126  0.24642330    -0.15170
C1098       C  0.32595971  0.96583071  0.26534090     0.37160
N1099       N  0.30867365  0.93679835  0.28907218    -0.89420
H1100       H  0.38239322  0.94769695  0.28070290     0.18270
H1101       H  0.30638129  0.03815119  0.20208146     0.18270
N1102       N  0.38186457  0.04737591  0.19314566    -0.88450
H1103       H  0.31919756  0.93973046  0.31693475     0.35640
H1104       H  0.31718513  0.90976214  0.27859691     0.40740
H1105       H  0.39666239  0.06691119  0.21049730     0.40360
H1106       H  0.36174409  0.06352527  0.17788328     0.35250
C1107       C  0.52655413  0.86113696  0.22087241    -0.26480
C1108       C  0.49624799  0.88049792  0.23874690    -0.14550
C1109       C  0.46681012  0.85908814  0.25691529     0.36080
C1110       C  0.46878793  0.81875118  0.25719642    -0.25930
C1111       C  0.49999041  0.79820685  0.24049696    -0.15170
C1112       C  0.52887542  0.82081210  0.22142230     0.37160
N1113       N  0.56087792  0.80296353  0.20223359    -0.89420
H1114       H  0.54924877  0.87751998  0.20694811     0.18270
H1115       H  0.44423830  0.80418394  0.26937032     0.18270
N1116       N  0.43337641  0.87700712  0.27375303    -0.88450
H1117       H  0.58621069  0.81364528  0.21413979     0.35640
H1118       H  0.56040833  0.81114826  0.17337139     0.40740
H1119       H  0.43309435  0.90671910  0.26928627     0.40360
H1120       H  0.43431834  0.87246718  0.30337805     0.35250
C1121       C  0.46338074  0.28987244  0.72287944    -0.26480
C1122       C  0.46102280  0.25557276  0.74526945    -0.14550
C1123       C  0.42268007  0.24267281  0.75479924     0.36080
C1124       C  0.39073974  0.26101402  0.73858853    -0.25930
C1125       C  0.39458840  0.29232661  0.71380819    -0.15170
C1126       C  0.43135662  0.30751667  0.70648759     0.37160
N1127       N  0.43770092  0.34035929  0.68198799    -0.89420
H1128       H  0.49034882  0.30431083  0.71782017     0.18270
H1129       H  0.36218265  0.25040328  0.74543298     0.18270
N1130       N  0.41393123  0.21132434  0.78045173    -0.88450
H1131       H  0.44801293  0.36286595  0.69906107     0.35640
H1132       H  0.41245018  0.35013711  0.66937219     0.40740
H1133       H  0.43809752  0.19706359  0.78978440     0.40360
H1134       H  0.39821472  0.19072305  0.76524571     0.35250
C1135       C  0.56605975  0.26864789  0.76643741    -0.26480
C1136       C  0.53622103  0.25529222  0.74229327    -0.14550
C1137       C  0.54370607  0.25723338  0.70167015     0.36080
C1138       C  0.57670517  0.27587056  0.68781685    -0.25930
C1139       C  0.60542818  0.28968949  0.71214035    -0.15170
C1140       C  0.60038508  0.28435521  0.75212265     0.37160
N1141       N  0.63055333  0.29125301  0.77900835    -0.89420
H1142       H  0.56432722  0.26491335  0.79714452     0.18270
H1143       H  0.58001703  0.27906725  0.65703158     0.18270
N1144       N  0.51848370  0.24196986  0.67288086    -0.88450
H1145       H  0.63456958  0.32080330  0.78277515     0.35640
H1146       H  0.65590624  0.27843245  0.76885739     0.40740
H1147       H  0.49345472  0.23016743  0.68395870     0.40360
H1148       H  0.53305139  0.21959174  0.65873160     0.35250
C1149       C  0.48581333  0.21136975  0.13639984    -0.26480
C1150       C  0.50166830  0.24351507  0.11848359    -0.14550
C1151       C  0.51466409  0.27428508  0.14119266     0.36080
C1152       C  0.51269721  0.27139277  0.18148976    -0.25930
C1153       C  0.49540534  0.23972198  0.20091260    -0.15170
C1154       C  0.48153622  0.20902276  0.17621610     0.37160
N1155       N  0.46275853  0.17484228  0.19035024    -0.89420
H1156       H  0.47526389  0.18764431  0.11909460     0.18270
H1157       H  0.52625238  0.29418300  0.19682048     0.18270
N1158       N  0.53064840  0.30818826  0.12342580    -0.88450
H1159       H  0.47900524  0.15096399  0.18148555     0.35640
H1160       H  0.43638740  0.17176553  0.17655117     0.40740
H1161       H  0.55622566  0.30005466  0.10964426     0.40360
H1162       H  0.53791119  0.32885277  0.14402134     0.35250
C1163       C  0.63800490  0.21200763  0.00037561    -0.26480
C1164       C  0.61668473  0.24563886  0.99375138    -0.14550
C1165       C  0.63618188  0.27913261  0.98199811     0.36080
C1166       C  0.67636066  0.27924949  0.98129202    -0.25930
C1167       C  0.69880414  0.24744573  0.99400801    -0.15170
C1168       C  0.67833344  0.21197456  0.99994921     0.37160
N1169       N  0.69659361  0.17540030  0.00640065    -0.89420
H1170       H  0.62322375  0.18526480  0.00695937     0.18270
H1171       H  0.68990576  0.30499948  0.97020330     0.18270
N1172       N  0.61529939  0.31293256  0.97024410    -0.88450
H1173       H  0.68704374  0.16466846  0.03282329     0.35640
H1174       H  0.72587277  0.17843993  0.00887803     0.40740
H1175       H  0.60089695  0.30596890  0.94495966     0.40360
H1176       H  0.63398872  0.33558248  0.96346457     0.35250
C1177       C  0.36520642  0.21244901  0.98787423    -0.26480
C1178       C  0.38645442  0.23798350  0.01061538    -0.14550
C1179       C  0.36713373  0.26320185  0.03572697     0.36080
C1180       C  0.32720138  0.26629858  0.03360963    -0.25930
C1181       C  0.30586700  0.24613500  0.00558016    -0.15170
C1182       C  0.32494622  0.21558118  0.98576490     0.37160
N1183       N  0.30417912  0.18718050  0.96448532    -0.89420
H1184       H  0.37996780  0.19090650  0.97059143     0.18270
H1185       H  0.31318333  0.28759962  0.05150100     0.18270
N1186       N  0.38829679  0.28667867  0.06226964    -0.88450
H1187       H  0.30963196  0.16019076  0.97668406     0.35640
H1188       H  0.31509608  0.18667757  0.93642386     0.40740
H1189       H  0.40169860  0.26811723  0.08164399     0.40360
H1190       H  0.36972966  0.30420891  0.07841615     0.35250
C1191       C  0.49622090  0.27428006  0.86627432    -0.26480
C1192       C  0.49883810  0.23999345  0.88753969    -0.14550
C1193       C  0.49979282  0.20456619  0.86775370     0.36080
C1194       C  0.49775293  0.20432931  0.82788013    -0.25930
C1195       C  0.49755070  0.23839246  0.80517880    -0.15170
C1196       C  0.49488654  0.27408282  0.82597464     0.37160
N1197       N  0.48944025  0.31074757  0.80781764    -0.89420
H1198       H  0.49445721  0.30176797  0.88111379     0.18270
H1199       H  0.49492961  0.17616548  0.81534022     0.18270
N1200       N  0.50250360  0.16842853  0.88798454    -0.88450
H1201       H  0.46219529  0.31163644  0.79566644     0.35640
H1202       H  0.51056294  0.31554778  0.78700952     0.40740
H1203       H  0.53019580  0.16675051  0.89925398     0.40360
H1204       H  0.49999586  0.14485359  0.86938555     0.35250
C1205       C  0.47342207  0.17225131  0.72821601    -0.26480
C1206       C  0.50316502  0.19214283  0.74727780    -0.14550
C1207       C  0.53568232  0.16956507  0.75846118     0.36080
C1208       C  0.53339863  0.12925508  0.75876428    -0.25930
C1209       C  0.50036348  0.11040521  0.74666304    -0.15170
C1210       C  0.47086395  0.13187195  0.72901221     0.37160
N1211       N  0.43737080  0.11407549  0.71274615    -0.89420
H1212       H  0.45035941  0.18763088  0.71453015     0.18270
H1213       H  0.55726763  0.11259690  0.76980610     0.18270
N1214       N  0.56948057  0.18708423  0.77373848    -0.88450
H1215       H  0.41342615  0.12380946  0.72834200     0.35640
H1216       H  0.43773427  0.08412569  0.71568290     0.40740
H1217       H  0.59301065  0.17822848  0.75703424     0.40360
H1218       H  0.57347447  0.17699261  0.80168281     0.35250
C1219       C  0.67392908  0.01738955  0.77870980    -0.26480
C1220       C  0.69209398  0.99019623  0.75419199    -0.14550
C1221       C  0.67013768  0.95697895  0.74393148     0.36080
C1222       C  0.63021865  0.95742783  0.74863453    -0.25930
C1223       C  0.61183266  0.98943094  0.76465221    -0.15170
C1224       C  0.63368002  0.01816974  0.78278034     0.37160
N1225       N  0.61490564  0.04928034  0.80291270    -0.89420
H1226       H  0.69031221  0.03966232  0.79270912     0.18270
H1227       H  0.61334918  0.93385300  0.73712599     0.18270
N1228       N  0.68730274  0.92474019  0.72455129    -0.88450
H1229       H  0.63510514  0.06899600  0.81317289     0.35640
H1230       H  0.60120073  0.03753693  0.82701164     0.40740
H1231       H  0.67426289  0.92135496  0.69785474     0.40360
H1232       H  0.68169008  0.89995827  0.74073491     0.35250
C1233       C  0.35946046  0.99218237  0.77819027    -0.26480
C1234       C  0.38223296  0.99743595  0.74501362    -0.14550
C1235       C  0.36384896  0.00168783  0.70966146     0.36080
C1236       C  0.32378169  0.00165060  0.70849806    -0.25930
C1237       C  0.29980077  0.00177311  0.74197800    -0.15170
C1238       C  0.31896633  0.99322840  0.77696885     0.37160
N1239       N  0.29769082  0.98304955  0.81093158    -0.89420
H1240       H  0.37310420  0.98639700  0.80540054     0.18270
H1241       H  0.31230024  0.00058889  0.68009662     0.18270
N1242       N  0.38572070  0.00574060  0.67460826    -0.88450
H1243       H  0.30672364  0.00066966  0.83351274     0.35640
H1244       H  0.30486403  0.95464571  0.81808199     0.40740
H1245       H  0.39940532  0.03258274  0.67559040     0.40360
H1246       H  0.36784591  0.00660190  0.65068146     0.35250
C1247       C  0.43562572  0.71669916  0.75848870    -0.26480
C1248       C  0.46337811  0.73590175  0.73564809    -0.14550
C1249       C  0.45544515  0.73926515  0.69546317     0.36080
C1250       C  0.42253938  0.72215571  0.68008781    -0.25930
C1251       C  0.39468730  0.70446705  0.70346718    -0.15170
C1252       C  0.40108288  0.70317474  0.74340280     0.37160
N1253       N  0.37190505  0.68972483  0.76940858    -0.89420
H1254       H  0.43939976  0.71273209  0.78891414     0.18270
H1255       H  0.41862802  0.72343403  0.64933742     0.18270
N1256       N  0.47989700  0.75954806  0.66899022    -0.88450
H1257       H  0.36512479  0.71213876  0.78846719     0.35640
H1258       H  0.38324762  0.66686236  0.78528258     0.40740
H1259       H  0.50795658  0.74918968  0.67025810     0.40360
H1260       H  0.47919575  0.78904377  0.67494904     0.35250
C1261       C  0.57313348  0.74898023  0.75412768    -0.26480
C1262       C  0.53789759  0.73441931  0.73994913    -0.14550
C1263       C  0.54026905  0.69979699  0.71748606     0.36080
C1264       C  0.57607025  0.68620463  0.70445027    -0.25930
C1265       C  0.61021436  0.70408935  0.71515831    -0.15170
C1266       C  0.60891142  0.73517885  0.74132503     0.37160
N1267       N  0.64302938  0.75345387  0.75560087    -0.89420
H1268       H  0.57275690  0.77265601  0.77452434     0.18270
H1269       H  0.57722444  0.66083582  0.68617493     0.18270
N1270       N  0.50734532  0.67637919  0.70985113    -0.88450
H1271       H  0.64311423  0.78197513  0.74582257     0.35640
H1272       H  0.66799133  0.74050549  0.74482748     0.40740
H1273       H  0.51176585  0.64916916  0.72200456     0.40360
H1274       H  0.50516034  0.67282644  0.68014154     0.35250
C1275       C  0.46328433  0.81878064  0.75124063    -0.26480
C1276       C  0.49822125  0.79851753  0.74488120    -0.14550
C1277       C  0.52869801  0.82144347  0.72958681     0.36080
C1278       C  0.52817720  0.86154956  0.73537629    -0.25930
C1279       C  0.49618921  0.87997247  0.75182392    -0.15170
C1280       C  0.46218619  0.85867873  0.75706843     0.37160
N1281       N  0.42607634  0.87619767  0.76768843    -0.89420
H1282       H  0.43639091  0.80329766  0.75381778     0.18270
H1283       H  0.55228382  0.87866817  0.72524059     0.18270
N1284       N  0.55683897  0.80597596  0.70352456    -0.88450
H1285       H  0.40709743  0.87196837  0.74498778     0.35640
H1286       H  0.42841082  0.90597710  0.77150104     0.40740
H1287       H  0.58403474  0.81437446  0.71292374     0.40360
H1288       H  0.55270725  0.81874354  0.67671359     0.35250
C1289       C  0.53010853  0.73174513  0.12979710    -0.26480
C1290       C  0.50126795  0.75196746  0.11090980    -0.14550
C1291       C  0.47128033  0.76903566  0.13220758     0.36080
C1292       C  0.47155307  0.76607352  0.17205965    -0.25930
C1293       C  0.50100684  0.74659777  0.19251712    -0.15170
C1294       C  0.53114767  0.72924197  0.16979611     0.37160
N1295       N  0.56459059  0.71081358  0.18477367    -0.89420
H1296       H  0.55312555  0.71859547  0.11308298     0.18270
H1297       H  0.44815933  0.77978305  0.18770357     0.18270
N1298       N  0.43949463  0.78864560  0.11468282    -0.88450
H1299       H  0.55731832  0.68487387  0.19782778     0.35640
H1300       H  0.57994258  0.72934079  0.20254390     0.40740
H1301       H  0.44096794  0.78766575  0.08481086     0.40360
H1302       H  0.44088835  0.81773099  0.12265344     0.35250
C1303       C  0.47303614  0.77296206  0.82252062    -0.26480
C1304       C  0.49842178  0.74986998  0.79997070    -0.14550
C1305       C  0.52031892  0.72224065  0.82116544     0.36080
C1306       C  0.52312600  0.72537149  0.86120922    -0.25930
C1307       C  0.50208508  0.75302170  0.88179410    -0.15170
C1308       C  0.47494725  0.77551838  0.86232995     0.37160
N1309       N  0.44674560  0.79918726  0.88169812    -0.89420
H1310       H  0.44917358  0.78783647  0.81057341     0.18270
H1311       H  0.54123776  0.70517349  0.87646539     0.18270
N1312       N  0.53729554  0.68901820  0.80320878    -0.88450
H1313       H  0.45342671  0.82806296  0.87607598     0.35640
H1314       H  0.44648875  0.79541911  0.91134379     0.40740
H1315       H  0.52484288  0.66431696  0.81520127     0.40360
H1316       H  0.56660206  0.68863597  0.80957288     0.35250
C1317       C  0.33018071  0.74750372  0.96303198    -0.26480
C1318       C  0.30919658  0.76043652  0.99588479    -0.14550
C1319       C  0.32966493  0.78508475  0.02154758     0.36080
C1320       C  0.37012828  0.78521673  0.02037092    -0.25930
C1321       C  0.39036676  0.76423223  0.99243271    -0.15170
C1322       C  0.37035025  0.74740717  0.96197719     0.37160
N1323       N  0.39075926  0.72995864  0.93029102    -0.89420
H1324       H  0.31509071  0.73273690  0.94024047     0.18270
H1325       H  0.38595630  0.80147890  0.04157114     0.18270
N1326       N  0.31015289  0.81119645  0.04721786    -0.88450
H1327       H  0.37159891  0.72073570  0.90924951     0.35640
H1328       H  0.40429853  0.70508419  0.94041327     0.40740
H1329       H  0.29570441  0.83138854  0.03036391     0.40360
H1330       H  0.32968837  0.82673246  0.06381051     0.35250
C1331       C  0.64335173  0.77820438  0.99552763    -0.26480
C1332       C  0.62042739  0.74485091  0.99716543    -0.14550
C1333       C  0.63862993  0.70851275  0.99767513     0.36080
C1334       C  0.67871416  0.70649060  0.99663901    -0.25930
C1335       C  0.70265374  0.73969265  0.99758018    -0.15170
C1336       C  0.68373777  0.77607045  0.99547488     0.37160
N1337       N  0.70532909  0.81121205  0.99379871    -0.89420
H1338       H  0.62992043  0.80641739  0.99435168     0.18270
H1339       H  0.69060131  0.67788397  0.99450239     0.18270
N1340       N  0.61657666  0.67337535  0.99902609    -0.88450
H1341       H  0.69701273  0.82861313  0.01699477     0.35640
H1342       H  0.69809977  0.82563721  0.96854332     0.40740
H1343       H  0.60377636  0.67182771  0.02624814     0.40360
H1344       H  0.63427123  0.64904946  0.99662934     0.35250
C1345       C  0.23606129  0.43379019  0.26886153    -0.26480
C1346       C  0.26062458  0.46492236  0.25912891    -0.14550
C1347       C  0.30079678  0.45838472  0.26280776     0.36080
C1348       C  0.31449359  0.42518785  0.28110876    -0.25930
C1349       C  0.28962018  0.39603812  0.29388648    -0.15170
C1350       C  0.24996965  0.39976530  0.28573667     0.37160
N1351       N  0.22339990  0.36871300  0.29171386    -0.89420
H1352       H  0.20582456  0.43482988  0.26224527     0.18270
H1353       H  0.34514041  0.42248263  0.28561566     0.18270
N1354       N  0.32805806  0.48619372  0.24920999    -0.88450
H1355       H  0.21998575  0.36358938  0.32099318     0.35640
H1356       H  0.23430629  0.34387457  0.27840348     0.40740
H1357       H  0.34604417  0.47259098  0.22912349     0.40360
H1358       H  0.34493146  0.49504341  0.27227080     0.35250
C1359       C  0.25557220  0.57701691  0.24849291    -0.26480
C1360       C  0.26122632  0.53972013  0.26395858    -0.14550
C1361       C  0.27651306  0.53852232  0.30206166     0.36080
C1362       C  0.29235369  0.57188135  0.31869326    -0.25930
C1363       C  0.29095505  0.60746155  0.30010095    -0.15170
C1364       C  0.27107275  0.61042640  0.26534833     0.37160
N1365       N  0.26611904  0.64751996  0.24755353    -0.89420
H1366       H  0.24042022  0.58036333  0.22207101     0.18270
H1367       H  0.30532681  0.57004540  0.34678959     0.18270
N1368       N  0.27397537  0.50468295  0.32552517    -0.88450
H1369       H  0.24957190  0.64505011  0.22278981     0.35640
H1370       H  0.29318278  0.65718476  0.23860222     0.40740
H1371       H  0.25757534  0.51141085  0.34993419     0.40360
H1372       H  0.30163031  0.49747372  0.33457674     0.35250
C1373       C  0.72611549  0.43536480  0.23786291    -0.26480
C1374       C  0.74185538  0.46554474  0.26039556    -0.14550
C1375       C  0.73679839  0.46208056  0.30094524     0.36080
C1376       C  0.71644566  0.43070636  0.31685436    -0.25930
C1377       C  0.70217542  0.40057926  0.29399151    -0.15170
C1378       C  0.70873481  0.40266840  0.25391539     0.37160
N1379       N  0.70062061  0.37111142  0.22853548    -0.89420
H1380       H  0.72685706  0.43589742  0.20703221     0.18270
H1381       H  0.71225016  0.42978392  0.34768281     0.18270
N1382       N  0.75214946  0.49056339  0.32642288    -0.88450
H1383       H  0.67107567  0.36803928  0.22524860     0.35640
H1384       H  0.71238015  0.34576289  0.23970940     0.40740
H1385       H  0.77068771  0.47677590  0.34545877     0.40360
H1386       H  0.72941192  0.50239866  0.34238602     0.35250
C1387       C  0.70016153  0.53861963  0.26244445    -0.26480
C1388       C  0.74095826  0.53828326  0.26126002    -0.14550
C1389       C  0.75970240  0.56809613  0.28274245     0.36080
C1390       C  0.73828840  0.59790777  0.29972840    -0.25930
C1391       C  0.69814733  0.59795175  0.30029543    -0.15170
C1392       C  0.67882082  0.56699928  0.28218436     0.37160
N1393       N  0.63794960  0.56178482  0.28500540    -0.89420
H1394       H  0.68449624  0.51562320  0.24842493     0.18270
H1395       H  0.75372960  0.62100921  0.31384354     0.18270
N1396       N  0.80002123  0.56790251  0.29033037    -0.88450
H1397       H  0.62614579  0.56879829  0.25844157     0.35640
H1398       H  0.62552704  0.57954676  0.30591103     0.40740
H1399       H  0.80383224  0.56610944  0.32000493     0.40360
H1400       H  0.81170107  0.59410997  0.28102219     0.35250
C1401       C  0.13586615  0.51727713  0.21790847    -0.26480
C1402       C  0.11861571  0.50761291  0.25285476    -0.14550
C1403       C  0.14228701  0.50179994  0.28498775     0.36080
C1404       C  0.18258669  0.50270066  0.28024085    -0.25930
C1405       C  0.20050953  0.50846999  0.24402464    -0.15170
C1406       C  0.17552621  0.51981802  0.21318377     0.37160
N1407       N  0.18736553  0.53720920  0.17755576    -0.89420
H1408       H  0.11808913  0.52465157  0.19359836     0.18270
H1409       H  0.20028211  0.49715337  0.30495576     0.18270
N1410       N  0.12568123  0.49410035  0.32209837    -0.88450
H1411       H  0.18395204  0.51756164  0.15507145     0.35640
H1412       H  0.21440325  0.54950859  0.17727985     0.40740
H1413       H  0.11192730  0.51937248  0.33132087     0.40360
H1414       H  0.14712868  0.48847342  0.34214376     0.35250
C1415       C  0.02877718  0.67959926  0.27087679    -0.26480
C1416       C  0.99786248  0.70026937  0.25408092    -0.14550
C1417       C  0.96694261  0.67768034  0.23899485     0.36080
C1418       C  0.96990966  0.63712911  0.23853177    -0.25930
C1419       C  0.00095698  0.61794662  0.25502955    -0.15170
C1420       C  0.03099594  0.63942818  0.27120362     0.37160
N1421       N  0.06449868  0.62184997  0.28774512    -0.89420
H1422       H  0.05219280  0.69532632  0.28391036     0.18270
H1423       H  0.94668130  0.62005038  0.22682891     0.18270
N1424       N  0.93152323  0.69464994  0.22651171    -0.88450
H1425       H  0.08840879  0.63102459  0.27183198     0.35640
H1426       H  0.06415067  0.59183941  0.28544179     0.40740
H1427       H  0.91661865  0.70434156  0.25084076     0.40360
H1428       H  0.91379264  0.67414298  0.21357979     0.35250
C1429       C  0.97738483  0.36777836  0.27135752    -0.26480
C1430       C  0.00579906  0.38697338  0.25050763    -0.14550
C1431       C  0.03312524  0.36544073  0.22919843     0.36080
C1432       C  0.03142855  0.32503859  0.22978677    -0.25930
C1433       C  0.00320340  0.30481223  0.25132216    -0.15170
C1434       C  0.97542328  0.32756523  0.27182526     0.37160
N1435       N  0.94498672  0.30991692  0.29354900    -0.89420
H1436       H  0.95615041  0.38422875  0.28746151     0.18270
H1437       H  0.05430076  0.30994944  0.21497618     0.18270
N1438       N  0.06458603  0.38311678  0.20876170    -0.88450
H1439       H  0.91876074  0.31997498  0.28308053     0.35640
H1440       H  0.94724117  0.31892523  0.32210219     0.40740
H1441       H  0.06595974  0.41285162  0.21324054     0.40360
H1442       H  0.06028404  0.37852335  0.17945763     0.35250
C1443       C  0.86946860  0.52760693  0.22875767    -0.26480
C1444       C  0.88750507  0.50092189  0.25245100    -0.14550
C1445       C  0.86518300  0.47506104  0.27425929     0.36080
C1446       C  0.82488471  0.47569009  0.27098109    -0.25930
C1447       C  0.80584524  0.50310398  0.24771986    -0.15170
C1448       C  0.82946118  0.52961426  0.22664704     0.37160
N1449       N  0.81287980  0.55911972  0.20316981    -0.89420
H1450       H  0.88664701  0.54780003  0.21218260     0.18270
H1451       H  0.80902090  0.45392736  0.28639379     0.18270
N1452       N  0.88357716  0.44746443  0.29880961    -0.88450
H1453       H  0.82272631  0.55506571  0.17499754     0.35640
H1454       H  0.82281697  0.58597296  0.21252958     0.40740
H1455       H  0.89936918  0.42859937  0.28128981     0.40360
H1456       H  0.86316708  0.43069258  0.31331643     0.35250
C1457       C  0.97351701  0.67847513  0.72794184    -0.26480
C1458       C  0.00337919  0.69921064  0.74649701    -0.14550
C1459       C  0.03258481  0.67658973  0.76460989     0.36080
C1460       C  0.03034674  0.63598249  0.76356000    -0.25930
C1461       C  0.00118067  0.61671405  0.74396581    -0.15170
C1462       C  0.97167042  0.63827767  0.72686239     0.37160
N1463       N  0.93896242  0.62080840  0.70871686    -0.89420
H1464       H  0.95072255  0.69417879  0.71381602     0.18270
H1465       H  0.05281898  0.61898814  0.77674047     0.18270
N1466       N  0.06572782  0.69360288  0.78203935    -0.88450
H1467       H  0.91433731  0.63050091  0.72324609     0.35640
H1468       H  0.93876215  0.59088000  0.71166502     0.40740
H1469       H  0.08422114  0.70265521  0.76007909     0.40360
H1470       H  0.08110072  0.67323990  0.79785123     0.35250
C1471       C  0.02640349  0.32314353  0.76447016    -0.26480
C1472       C  0.99854260  0.30277854  0.74323394    -0.14550
C1473       C  0.97195536  0.32528144  0.72153566     0.36080
C1474       C  0.97465203  0.36554587  0.72067008    -0.25930
C1475       C  0.00221783  0.38504464  0.74194775    -0.15170
C1476       C  0.02836641  0.36356068  0.76439026     0.37160
N1477       N  0.05864599  0.38127514  0.78596874    -0.89420
H1478       H  0.04815165  0.30815021  0.78044805     0.18270
H1479       H  0.95401285  0.38181976  0.70407481     0.18270
N1480       N  0.94098918  0.30741248  0.70132461    -0.88450
H1481       H  0.05282974  0.37658533  0.81507451     0.35640
H1482       H  0.05988425  0.41098532  0.78184842     0.40740
H1483       H  0.94333131  0.31503217  0.67237373     0.40360
H1484       H  0.91504755  0.31856851  0.71192404     0.35250
C1485       C  0.76471802  0.42891227  0.72892598    -0.26480
C1486       C  0.74223113  0.46059123  0.74141350    -0.14550
C1487       C  0.70163172  0.45579081  0.74103569     0.36080
C1488       C  0.68519515  0.42330002  0.72352455    -0.25930
C1489       C  0.70798889  0.39312033  0.70894437    -0.15170
C1490       C  0.74830658  0.39537955  0.71380055     0.37160
N1491       N  0.77330703  0.36315259  0.70664710    -0.89420
H1492       H  0.79551352  0.42894749  0.73232505     0.18270
H1493       H  0.65419666  0.42176421  0.72150856     0.18270
N1494       N  0.67675847  0.48446739  0.75756399    -0.88450
H1495       H  0.77523626  0.35762278  0.67730189     0.35640
H1496       H  0.76233683  0.33890327  0.72080011     0.40740
H1497       H  0.66022644  0.47127137  0.77902097     0.40360
H1498       H  0.65808547  0.49427229  0.73636946     0.35250
C1499       C  0.75226111  0.57114742  0.76035515    -0.26480
C1500       C  0.74439283  0.53582825  0.74131004    -0.14550
C1501       C  0.72590099  0.53858110  0.70491070     0.36080
C1502       C  0.71192630  0.57424493  0.69211545    -0.25930
C1503       C  0.71692106  0.60806264  0.71332918    -0.15170
C1504       C  0.73800723  0.60671198  0.74761597     0.37160
N1505       N  0.74620009  0.64067962  0.76990626    -0.89420
H1506       H  0.76890035  0.57114188  0.78641056     0.18270
H1507       H  0.69700597  0.57553462  0.66496383     0.18270
N1508       N  0.72227086  0.50618764  0.67957113    -0.88450
H1509       H  0.73218234  0.63774165  0.79640795     0.35640
H1510       H  0.73541512  0.66565824  0.75721226     0.40740
H1511       H  0.73588666  0.51297772  0.65358107     0.40360
H1512       H  0.69311730  0.50222886  0.67377006     0.35250
C1513       C  0.82771266  0.51549720  0.78421105    -0.26480
C1514       C  0.80495376  0.50161091  0.75358012    -0.14550
C1515       C  0.82399816  0.49639853  0.71770107     0.36080
C1516       C  0.86432862  0.49725790  0.71554198    -0.25930
C1517       C  0.88651045  0.50561125  0.74792968    -0.15170
C1518       C  0.86769746  0.51674900  0.78201258     0.37160
N1519       N  0.88889189  0.52996029  0.81455525    -0.89420
H1520       H  0.81478210  0.52540451  0.81078895     0.18270
H1521       H  0.87826899  0.49097629  0.68830170     0.18270
N1522       N  0.80285635  0.48996624  0.68330492    -0.88450
H1523       H  0.88210294  0.51216583  0.83785417     0.35640
H1524       H  0.87976611  0.55799126  0.82120280     0.40740
H1525       H  0.81212284  0.46394612  0.67103861     0.40360
H1526       H  0.80967244  0.51211904  0.66407960     0.35250
C1527       C  0.77931211  0.47253813  0.17670937    -0.26480
C1528       C  0.75725304  0.50113811  0.19656228    -0.14550
C1529       C  0.73784356  0.52880564  0.17325248     0.36080
C1530       C  0.73947224  0.52576277  0.13307274    -0.25930
C1531       C  0.76178939  0.49764427  0.11453350    -0.15170
C1532       C  0.78219621  0.47087501  0.13651429     0.37160
N1533       N  0.80476425  0.44127354  0.11804983    -0.89420
H1534       H  0.79512538  0.45138425  0.19313804     0.18270
H1535       H  0.72403754  0.54673765  0.11600717     0.18270
N1536       N  0.71814810  0.56147790  0.18907026    -0.88450
H1537       H  0.81654678  0.42265124  0.13839048     0.35640
H1538       H  0.82798054  0.45474879  0.10437615     0.40740
H1539       H  0.68965971  0.56078583  0.17981346     0.40360
H1540       H  0.73098615  0.58656779  0.17833621     0.35250
C1541       C  0.77050633  0.46510599  0.86477873    -0.26480
C1542       C  0.74905558  0.49281586  0.88452540    -0.14550
C1543       C  0.72505149  0.51802522  0.86389242     0.36080
C1544       C  0.72620953  0.51744216  0.82346594    -0.25930
C1545       C  0.75156937  0.49273661  0.80306537    -0.15170
C1546       C  0.77118540  0.46395524  0.82472603     0.37160
N1547       N  0.79438549  0.43506569  0.80632494    -0.89420
H1548       H  0.78752226  0.44439637  0.88061560     0.18270
H1549       H  0.70767101  0.53705123  0.80822960     0.18270
N1550       N  0.70111573  0.54545487  0.88391013    -0.88450
H1551       H  0.78409537  0.40796245  0.81464441     0.35640
H1552       H  0.82257517  0.43772773  0.81610760     0.40740
H1553       H  0.67954066  0.52997061  0.89813316     0.40360
H1554       H  0.68714221  0.56353332  0.86449741     0.35250
C1555       C  0.75021051  0.62942869  0.03245586    -0.26480
C1556       C  0.76405193  0.61065383  0.99971126    -0.14550
C1557       C  0.78092664  0.63268028  0.96990609     0.36080
C1558       C  0.77962514  0.67312273  0.97204987    -0.25930
C1559       C  0.75952046  0.69249619  0.00184362    -0.15170
C1560       C  0.74878018  0.66984101  0.03464360     0.37160
N1561       N  0.73488084  0.68747152  0.06955813    -0.89420
H1562       H  0.73962354  0.61232285  0.05634200     0.18270
H1563       H  0.79320003  0.68899269  0.94906220     0.18270
N1564       N  0.79761242  0.61544231  0.93604382    -0.88450
H1565       H  0.73289678  0.66714450  0.09163223     0.35640
H1566       H  0.70696294  0.69736797  0.06520405     0.40740
H1567       H  0.79487619  0.58547004  0.93583117     0.40360
H1568       H  0.82700195  0.62163949  0.93600989     0.35250
C1569       C  0.73488007  0.31816646  0.02810077    -0.26480
C1570       C  0.75368312  0.29652597  0.99874645    -0.14550
C1571       C  0.77818209  0.31750851  0.97315893     0.36080
C1572       C  0.77762423  0.35828085  0.97394367    -0.25930
C1573       C  0.75461187  0.37884749  0.00021156    -0.15170
C1574       C  0.73399551  0.35857806  0.02836031     0.37160
N1575       N  0.71265477  0.37901015  0.05757220    -0.89420
H1576       H  0.71762151  0.30342690  0.04927161     0.18270
H1577       H  0.79533524  0.37426701  0.95377382     0.18270
N1578       N  0.80436407  0.29831384  0.94730440    -0.88450
H1579       H  0.70107418  0.35976546  0.07764719     0.35640
H1580       H  0.68924745  0.39223970  0.04437445     0.40740
H1581       H  0.82597795  0.28572852  0.96361632     0.40360
H1582       H  0.81805401  0.31809699  0.92916051     0.35250
C1583       C  0.27512539  0.43617636  0.76917527    -0.26480
C1584       C  0.25931103  0.46483952  0.74504019    -0.14550
C1585       C  0.26106116  0.45746819  0.70473715     0.36080
C1586       C  0.27926763  0.42428858  0.69029196    -0.25930
C1587       C  0.29412514  0.39591205  0.71459370    -0.15170
C1588       C  0.29055496  0.40164355  0.75476507     0.37160
N1589       N  0.29921512  0.37193903  0.78198620    -0.89420
H1590       H  0.27416248  0.43884777  0.79997504     0.18270
H1591       H  0.28155179  0.42077321  0.65945556     0.18270
N1592       N  0.24561221  0.48446097  0.67787300    -0.88450
H1593       H  0.32881024  0.36800677  0.78378674     0.35640
H1594       H  0.28602967  0.34622840  0.77350839     0.40740
H1595       H  0.22504288  0.47016580  0.66143363     0.40360
H1596       H  0.26774878  0.49340050  0.65945707     0.35250
C1597       C  0.24018469  0.57557547  0.74611747    -0.26480
C1598       C  0.25889654  0.53937337  0.74277134    -0.14550
C1599       C  0.29663790  0.53997326  0.72616391     0.36080
C1600       C  0.31018584  0.57325529  0.70762120    -0.25930
C1601       C  0.28902093  0.60762327  0.70756092    -0.15170
C1602       C  0.25412974  0.60915103  0.72848965     0.37160
N1603       N  0.23269448  0.64430242  0.73402690    -0.89420
H1604       H  0.21362126  0.57809681  0.76181970     0.18270
H1605       H  0.33829466  0.57248298  0.69395394     0.18270
N1606       N  0.32272295  0.50816733  0.72978890    -0.88450
H1607       H  0.20682274  0.64150216  0.71928138     0.35640
H1608       H  0.24691186  0.66834385  0.72293493     0.40740
H1609       H  0.34691331  0.51772839  0.74460390     0.40360
H1610       H  0.33168835  0.49973321  0.70229241     0.35250
C1611       C  0.13312427  0.46724892  0.75822830    -0.26480
C1612       C  0.11638794  0.49479577  0.73476465    -0.14550
C1613       C  0.13982192  0.51966689  0.71323968     0.36080
C1614       C  0.17964812  0.51942843  0.71950416    -0.25930
C1615       C  0.19656937  0.49622107  0.74844231    -0.15170
C1616       C  0.17233352  0.46724417  0.76575341     0.37160
N1617       N  0.18472318  0.43900516  0.79330088    -0.89420
H1618       H  0.11499272  0.44687258  0.77336549     0.18270
H1619       H  0.19696551  0.53844925  0.70206188     0.18270
N1620       N  0.12303768  0.54652341  0.68681676    -0.88450
H1621       H  0.16783961  0.44219537  0.81810543     0.35640
H1622       H  0.21223944  0.44370047  0.80265438     0.40740
H1623       H  0.11132985  0.53050033  0.66433479     0.40360
H1624       H  0.14417598  0.56417416  0.67457200     0.35250
C1625       C  0.28663260  0.51998978  0.13755644    -0.26480
C1626       C  0.26364666  0.49391670  0.11725749    -0.14550
C1627       C  0.24218490  0.46623909  0.13782491     0.36080
C1628       C  0.24006600  0.46888654  0.17778640    -0.25930
C1629       C  0.25806129  0.49903952  0.19855294    -0.15170
C1630       C  0.28485529  0.52238753  0.17789366     0.37160
N1631       N  0.31045918  0.54831663  0.19682952    -0.89420
H1632       H  0.30510799  0.53975602  0.12191660     0.18270
H1633       H  0.22144895  0.44866834  0.19256720     0.18270
N1634       N  0.22191253  0.43524829  0.11939171    -0.88450
H1635       H  0.30601314  0.57603157  0.18583539     0.35640
H1636       H  0.33860238  0.54024224  0.18973868     0.40740
H1637       H  0.22821598  0.43348938  0.09011374     0.40360
H1638       H  0.19248495  0.44069297  0.12241615     0.35250
C1639       C  0.29517260  0.67812140  0.99573361    -0.26480
C1640       C  0.26249521  0.70199075  0.00291929    -0.14550
C1641       C  0.23025516  0.68146876  0.01919134     0.36080
C1642       C  0.22920498  0.64068294  0.01878052    -0.25930
C1643       C  0.26038921  0.61865586  0.00552070    -0.15170
C1644       C  0.29398487  0.63793052  0.99416242     0.37160
N1645       N  0.32756605  0.61679639  0.98166548    -0.89420
H1646       H  0.32366446  0.68911321  0.99416561     0.18270
H1647       H  0.20415707  0.62614971  0.03047252     0.18270
N1648       N  0.20020769  0.70089940  0.04012742    -0.88450
H1649       H  0.35061031  0.63524766  0.97571480     0.35640
H1650       H  0.32087755  0.60347569  0.95561150     0.40740
H1651       H  0.20212656  0.69256106  0.06887143     0.40360
H1652       H  0.17365298  0.69084437  0.03053504     0.35250
C1653       C  0.22590115  0.32270477  0.99915590    -0.26480
C1654       C  0.26195268  0.30433773  0.99392202    -0.14550
C1655       C  0.29329880  0.32883474  0.98170150     0.36080
C1656       C  0.28926246  0.36873896  0.98383688    -0.25930
C1657       C  0.25467089  0.38647101  0.99400957    -0.15170
C1658       C  0.22195008  0.36320372  0.99995482     0.37160
N1659       N  0.18516508  0.38040298  0.00814308    -0.89420
H1660       H  0.20090288  0.30538601  0.00548806     0.18270
H1661       H  0.31392070  0.38630435  0.97613024     0.18270
N1662       N  0.32898811  0.31634373  0.96447181    -0.88450
H1663       H  0.16461678  0.35913797  0.01390102     0.35640
H1664       H  0.17621898  0.39439988  0.98321622     0.40740
H1665       H  0.33046229  0.28775354  0.95624600     0.40360
H1666       H  0.35149079  0.32259069  0.98313003     0.35250
C1667       C  0.21558761  0.51712144  0.87055526    -0.26480
C1668       C  0.25138354  0.51007012  0.88681753    -0.14550
C1669       C  0.28371850  0.50692774  0.86215567     0.36080
C1670       C  0.27855630  0.50731607  0.82208294    -0.25930
C1671       C  0.24182700  0.50951435  0.80522372    -0.15170
C1672       C  0.21042326  0.51915509  0.83092310     0.37160
N1673       N  0.17371546  0.53435266  0.81976595    -0.89420
H1674       H  0.19095945  0.52267708  0.88904574     0.18270
H1675       H  0.30352892  0.50374487  0.80374695     0.18270
N1676       N  0.32163479  0.50246833  0.87754740    -0.88450
H1677       H  0.15237904  0.51368293  0.82456158     0.35640
H1678       H  0.17238579  0.54518339  0.79219536     0.40740
H1679       H  0.32878265  0.52846203  0.89100752     0.40360
H1680       H  0.34188124  0.49848605  0.85553022     0.35250
loop_ 
_geom_bond_atom_site_label_1 
_geom_bond_atom_site_label_2 
_geom_bond_distance 
_geom_bond_site_symmetry_2 
_ccdc_geom_bond_type 
O1            V9   1.898   1_556  S
O1           C11   1.262       .  A
O2            V9   1.897       .  S
O2           C12   1.261       .  A
O3            V9   1.888   1_556  S
O3           C13   1.265       .  A
O4            V9   1.886       .  S
O4           C14   1.264       .  A
O5           V10   1.904       .  S
O5           C14   1.264       .  A
O6           V10   1.901       .  S
O6           C13   1.263   1_554  A
O7           V10   1.904       .  S
O7           C12   1.267       .  A
O8           V10   1.904   1_556  S
O8           C11   1.269       .  A
V9           V10   2.084       .  T
C11        C1668   1.491       .  S
C12        C1626   1.475       .  S
C13        C1657   1.483       .  S
C14        C1643   1.484       .  S
C15        C1584   1.573       .  S
C15        C1598   1.575       .  S
C15        C1615   1.564       .  S
C15        C1671   1.576       .  S
O16          V24   1.893       .  S
O16          C26   1.260       .  A
O17          V24   1.889       .  S
O17          C27   1.259       .  A
O18          V24   1.906       .  S
O18          C28   1.268       .  A
O19          V24   1.914   1_554  S
O19          C29   1.269       .  A
O20          V25   1.885       .  S
O20          C29   1.259       .  A
O21          V25   1.890   1_556  S
O21          C28   1.259       .  A
O22          V25   1.911       .  S
O22          C27   1.269   1_554  A
O23          V25   1.905       .  S
O23          C26   1.267   1_554  A
V24          V25   2.088   1_556  T
C26        C1556   1.471       .  S
C27        C1573   1.476   1_556  S
C28        C1542   1.473       .  S
C29        C1531   1.476       .  S
C30        C1486   1.560       .  S
C30        C1500   1.568       .  S
C30        C1514   1.565       .  S
C30        C1545   1.568       .  S
O31          V39   1.890       .  S
O31          C41   1.260       .  A
O32          V39   1.889       .  S
O32          C42   1.260       .  A
O33          V39   1.889       .  S
O33          C43   1.264       .  A
O34          V39   1.893   1_655  S
O34          C44   1.265       .  A
O35          V40   1.894   1_655  S
O35          C44   1.263       .  A
O36          V40   1.897       .  S
O36          C43   1.261       .  A
O37          V40   1.907       .  S
O37          C42   1.267       .  A
O38          V40   1.903   1_655  S
O38          C41   1.267   1_655  A
V39          V40   2.087       .  T
C41        C1461   1.471       .  S
C42        C1475   1.473       .  S
C43        C1612   1.466       .  S
C44        C1517   1.479       .  S
O45          V53   1.904       .  S
O45          C55   1.264       .  A
O46          V53   1.902   1_655  S
O46          C56   1.264       .  A
O47          V53   1.895       .  S
O47          C57   1.264       .  A
O48          V53   1.900       .  S
O48          C58   1.265       .  A
O49          V54   1.890       .  S
O49          C58   1.260       .  A
O50          V54   1.892       .  S
O50          C57   1.261       .  A
O51          V54   1.894   1_655  S
O51          C56   1.264       .  A
O52          V54   1.891       .  S
O52          C55   1.266       .  A
V53          V54   2.088       .  T
C55        C1402   1.488       .  S
C56        C1444   1.472       .  S
C57        C1430   1.466       .  S
C58        C1419   1.465       .  S
C59        C1374   1.585       .  S
C59        C1388   1.577       .  S
C59        C1447   1.568       .  S
C59        C1528   1.581       .  S
C60        C1346   1.569       .  S
C60        C1360   1.576       .  S
C60        C1405   1.575       .  S
C60        C1629   1.562       .  S
O61          V69   1.899       .  S
O61          C71   1.264       .  A
O62          V69   1.896       .  S
O62          C72   1.261       .  A
O63          V69   1.902   1_554  S
O63          C73   1.265       .  A
O64          V69   1.903       .  S
O64          C74   1.267       .  A
O65          V70   1.881       .  S
O65          C74   1.258       .  A
O66          V70   1.884   1_554  S
O66          C73   1.259       .  A
O67          V70   1.897       .  S
O67          C72   1.265       .  A
O68          V70   1.892       .  S
O68          C71   1.265       .  A
V69          V70   2.088       .  T
C71        C1332   1.487       .  S
C72        C1321   1.467       .  S
C73        C1290   1.462       .  S
C74        C1307   1.466       .  S
C75        C1248   1.562       .  S
C75        C1262   1.571       .  S
C75        C1276   1.580       .  S
C75        C1304   1.591       .  S
O76          V84   1.888       .  S
O76          C86   1.258       .  A
O77          V84   1.890       .  S
O77          C87   1.260       .  A
O78          V84   1.915       .  S
O78          C88   1.269       .  A
O79          V84   1.912   1_545  S
O79          C89   1.269       .  A
O80          V85   1.877   1_545  S
O80          C89   1.255       .  A
O81          V85   1.869       .  S
O81          C88   1.254       .  A
O82          V85   1.903       .  S
O82          C87   1.269       .  A
O83          V85   1.903       .  S
O83          C86   1.268       .  A
V84          V85   2.089       .  T
C86        C1223   1.464       .  S
C87        C1234   1.487       .  S
C88        C1279   1.461       .  S
C89        C1209   1.463       .  S
O90          V98   1.901       .  S
O90         C100   1.264       .  A
O91          V98   1.903   1_556  S
O91         C101   1.264       .  A
O92          V98   1.897       .  S
O92         C102   1.266       .  A
O93          V98   1.897   1_556  S
O93         C103   1.265       .  A
O94          V99   1.894       .  S
O94         C103   1.263   1_554  A
O95          V99   1.895       .  S
O95         C102   1.261       .  A
O96          V99   1.884   1_556  S
O96         C101   1.263       .  A
O97          V99   1.892       .  S
O97         C100   1.265       .  A
V98          V99   2.085       .  T
C100       C1150   1.480       .  S
C101       C1192   1.485       .  S
C102       C1178   1.470       .  S
C103       C1164   1.483       .  S
C104       C1122   1.583       .  S
C104       C1136   1.578       .  S
C104       C1195   1.583       .  S
C104       C1206   1.573       .  S
O105        V113   1.884       .  S
O105        C115   1.259       .  A
O106        V113   1.891   1_545  S
O106        C116   1.261       .  A
O107        V113   1.898       .  S
O107        C117   1.266       .  A
O108        V113   1.904       .  S
O108        C118   1.266       .  A
O109        V114   1.888       .  S
O109        C118   1.260       .  A
O110        V114   1.896   1_545  S
O110        C117   1.261   1_545  A
O111        V114   1.900   1_545  S
O111        C116   1.266       .  A
O112        V114   1.907       .  S
O112        C115   1.267       .  A
V113        V114   2.089       .  T
C115       C1108   1.467       .  S
C116       C1066   1.468       .  S
C117       C1094   1.472       .  S
C118       C1080   1.469       .  S
C119       C1038   1.578       .  S
C119       C1055   1.569       .  S
C119       C1111   1.578       .  S
C119       C1293   1.567       .  S
C120       C1010   1.586       .  S
C120       C1024   1.615       .  S
C120       C1069   1.583       .  S
C120       C1153   1.598       .  S
O121        V129   1.893       .  S
O121        C131   1.260       .  A
O122        V129   1.898   1_565  S
O122        C132   1.262       .  A
O123        V129   1.907       .  S
O123        C133   1.269       .  A
O124        V129   1.909       .  S
O124        C134   1.268       .  A
O125        V130   1.885       .  S
O125        C134   1.258       .  A
O126        V130   1.889       .  S
O126        C133   1.260       .  A
O127        V130   1.902   1_565  S
O127        C132   1.269       .  A
O128        V130   1.904       .  S
O128        C131   1.268       .  A
V129        V130   2.085       .  T
C131        C954   1.471       .  S
C132        C996   1.491       .  S
C133        C982   1.482       .  S
C134        C968   1.466       .  S
C135        C912   1.578       .  S
C135        C926   1.575       .  S
C135        C940   1.558       .  S
C135        C999   1.574       .  S
O136        V144   1.894   1_545  S
O136        C146   1.260       .  A
O137        V144   1.893       .  S
O137        C147   1.262       .  A
O138        V144   1.889       .  S
O138        C148   1.267   1_565  A
O139        V144   1.894   1_545  S
O139        C149   1.264   1_545  A
O140        V145   1.894   1_565  S
O140        C149   1.262       .  A
O141        V145   1.899       .  S
O141        C148   1.262       .  A
O142        V145   1.904   1_565  S
O142        C147   1.266       .  A
O143        V145   1.905       .  S
O143        C146   1.267       .  A
V144        V145   2.082   1_565  T
C146        C856   1.470       .  S
C147        C870   1.474       .  S
C148        C884   1.483       .  S
C149        C901   1.465       .  S
C150        C814   1.577       .  S
C150        C828   1.574       .  S
C150        C845   1.574       .  S
C150        C873   1.573       .  S
O151        V159   1.888       .  S
O151        C161   1.260       .  A
O152        V159   1.887   1_455  S
O152        C162   1.260   1_455  A
O153        V159   1.901       .  S
O153        C163   1.265       .  A
O154        V159   1.898   1_455  S
O154        C164   1.266       .  A
O155        V160   1.892   1_455  S
O155        C164   1.261       .  A
O156        V160   1.889       .  S
O156        C163   1.261       .  A
O157        V160   1.899       .  S
O157        C162   1.265       .  A
O158        V160   1.898       .  S
O158        C161   1.265       .  A
V159        V160   2.087       .  T
C161        C786   1.464       .  S
C162        C800   1.464       .  S
C163        C842   1.467       .  S
C164        C943   1.467       .  S
O165        V173   1.912       .  S
O165        C175   1.265       .  A
O166        V173   1.907   1_455  S
O166        C176   1.266       .  A
O167        V173   1.900       .  S
O167        C177   1.265       .  A
O168        V173   1.901       .  S
O168        C178   1.265       .  A
O169        V174   1.891       .  S
O169        C178   1.261       .  A
O170        V174   1.889       .  S
O170        C177   1.260       .  A
O171        V174   1.886   1_455  S
O171        C176   1.262       .  A
O172        V174   1.877       .  S
O172        C175   1.264       .  A
V173        V174   2.086       .  T
C175        C772   1.487       .  S
C176        C730   1.488       .  S
C177        C758   1.467       .  S
C178        C744   1.469       .  S
C179        C705   1.585       .  S
C179        C716   1.594       .  S
C179        C775   1.576       .  S
C179        C859   1.562       .  S
C180        C677   1.579       .  S
C180        C688   1.573       .  S
C180        C733   1.574       .  S
C180        C957   1.572       .  S
C181        C646   1.581   1_455  S
C181        C663   1.572       .  S
C181        C761   1.576       .  S
C181       C1433   1.571       .  S
C182        C618   1.586   1_545  S
C182        C632   1.568       .  S
C182        C898   1.564       .  S
C182       C1083   1.577       .  S
C183        C590   1.569       .  S
C183        C607   1.578   1_655  S
C183        C803   1.561       .  S
C183       C1416   1.578       .  S
C184        C565   1.561       .  S
C184        C579   1.570   1_565  S
C184        C985   1.570   1_565  S
C184       C1097   1.567       .  S
C185        C537   1.582   1_455  S
C185        C551   1.571       .  S
C185        C789   1.564       .  S
C185       C1458   1.579       .  S
C186        C506   1.580   1_545  S
C186        C520   1.583       .  S
C186        C971   1.567       .  S
C186       C1237   1.591       .  S
C187        C481   1.577       .  S
C187        C492   1.582   1_655  S
C187        C747   1.573   1_655  S
C187       C1472   1.564       .  S
C188        C450   1.578       .  S
C188        C464   1.590   1_565  S
C188        C887   1.570       .  S
C188       C1220   1.562       .  S
C189        C425   1.573       .  S
C189        C436   1.569   1_556  S
C189       C1181   1.554   1_556  S
C189       C1654   1.569       .  S
C190        C397   1.602       .  S
C190        C411   1.565   1_556  S
C190       C1318   1.586       .  S
C190       C1640   1.607   1_556  S
C191        C369   1.580       .  S
C191        C383   1.564   1_556  S
C191       C1167   1.579       .  S
C191       C1570   1.577       .  S
C192        C338   1.587       .  S
C192        C352   1.574   1_556  S
C192       C1335   1.578       .  S
C192       C1559   1.569   1_556  S
C193        C380   1.489       .  S
C193        C194   1.402       .  A
C193        C198   1.404       .  A
C194        C195   1.407       .  A
C194        H199   1.076       .  S
C195        C649   1.500       .  S
C195        C196   1.405       .  A
C196        C197   1.410       .  A
C196        H200   1.082       .  S
C197        C635   1.493       .  S
C197        C198   1.403       .  A
C198        H201   1.083       .  S
C202        C604   1.498       .  S
C202        C203   1.412       .  A
C202        C207   1.408       .  A
C203        C204   1.410       .  A
C203        H208   1.082       .  S
C204        C562   1.494       .  S
C204        C205   1.405       .  A
C205        C206   1.397       .  A
C205        H209   1.084       .  S
C206        C408   1.477       .  S
C206        C207   1.399       .  A
C207        H210   1.080       .  S
C211        C495   1.501       .  S
C211        C212   1.402       .  A
C211        C216   1.411       .  A
C212        C213   1.400       .  A
C212        H217   1.079       .  S
C213        C422   1.485       .  S
C213        C214   1.403       .  A
C214        C215   1.413       .  A
C214        H218   1.075       .  S
C215        C523   1.523       .  S
C215        C216   1.418       .  A
C216        H219   1.079       .  S
C220        C593   1.496       .  S
C220        C221   1.408       .  A
C220        C225   1.404       .  A
C221        C222   1.405       .  A
C221        H226   1.080       .  S
C222        C621   1.501       .  S
C222        C223   1.409       .  A
C223        C224   1.407       .  A
C223        H227   1.082       .  S
C224        C355   1.494       .  S
C224        C225   1.406       .  A
C225        H228   1.082       .  S
C229        C394   1.511       .  S
C229        C230   1.415       .  A
C229        C234   1.413       .  A
C230        C231   1.408       .  A
C230        H235   1.080       .  S
C231        C548   1.493       .  S
C231        C232   1.406       .  A
C232        C233   1.396       .  A
C232        H236   1.084       .  S
C233        C509   1.480       .  S
C233        C234   1.398       .  A
C234        H237   1.079       .  S
C238        C478   1.501       .  S
C238        C239   1.409       .  A
C238        C243   1.413       .  A
C239        C240   1.404       .  A
C239        H244   1.082       .  S
C240        C467   1.479       .  S
C240        C241   1.402       .  A
C241        C242   1.400       .  A
C241        H245   1.084       .  S
C242        C366   1.480       .  S
C242        C243   1.402       .  A
C243        H246   1.083       .  S
C247        C534   1.502       .  S
C247        C248   1.413       .  A
C247        C252   1.407       .  A
C248        C249   1.412       .  A
C248        H253   1.083       .  S
C249        C453   1.496       .  S
C249        C250   1.407       .  A
C250        C251   1.398       .  A
C250        H254   1.083       .  S
C251        C341   1.479       .  S
C251        C252   1.399       .  A
C252        H255   1.079       .  S
C256        C439   1.490       .  S
C256        C257   1.409       .  A
C256        C261   1.408       .  A
C257        C258   1.404       .  A
C257        H262   1.084       .  S
C258        C576   1.483       .  S
C258        C259   1.399       .  A
C259        C260   1.404       .  A
C259        H263   1.081       .  S
C260        C660   1.491       .  S
C260        C261   1.407       .  A
C261        H264   1.083       .  S
C265        C691   1.497       .  S
C265        C266   1.411       .  A
C265        C270   1.405       .  A
C266        C267   1.412       .  A
C266        H271   1.082       .  S
C267       C1587   1.496       .  S
C267        C268   1.403       .  A
C268        C269   1.399       .  A
C268        H272   1.080       .  S
C269       C1125   1.476       .  S
C269        C270   1.400       .  A
C270        H273   1.080       .  S
C274       C1027   1.508       .  S
C274        C275   1.409       .  A
C274        C279   1.407       .  A
C275        C276   1.411       .  A
C275        H280   1.078       .  S
C276        C702   1.513       .  S
C276        C277   1.411       .  A
C277        C278   1.410       .  A
C277        H281   1.080       .  S
C278       C1377   1.503       .  S
C278        C279   1.411       .  A
C279        H282   1.079       .  S
C283       C1363   1.482       .  S
C283        C284   1.403       .  A
C283        C288   1.401       .  A
C284        C285   1.413       .  A
C284        H289   1.083       .  S
C285       C1041   1.503       .  S
C285        C286   1.408       .  A
C286        C287   1.403       .  A
C286        H290   1.078       .  S
C287        C915   1.478       .  S
C287        C288   1.402       .  A
C288        H291   1.084       .  S
C292       C1349   1.496       .  S
C292        C293   1.409       .  A
C292        C297   1.408       .  A
C293        C294   1.406       .  A
C293        H298   1.084       .  S
C294       C1013   1.488       .  S
C294        C295   1.403       .  A
C295        C296   1.402       .  A
C295        H299   1.084       .  S
C296        C674   1.478       .  S
C296        C297   1.405       .  A
C297        H300   1.081       .  S
C301       C1601   1.483       .  S
C301        C302   1.397       .  A
C301        C306   1.405       .  A
C302        C303   1.402       .  A
C302        H307   1.082       .  S
C303       C1251   1.498       .  S
C303        C304   1.410       .  A
C304        C305   1.410       .  A
C304        H308   1.078       .  S
C305        C929   1.499       .  S
C305        C306   1.411       .  A
C306        H309   1.084       .  S
C310        C719   1.479       .  S
C310        C311   1.399       .  A
C310        C315   1.401       .  A
C311        C312   1.404       .  A
C311        H316   1.082       .  S
C312       C1489   1.494       .  S
C312        C313   1.409       .  A
C313        C314   1.409       .  A
C313        H317   1.078       .  S
C314       C1139   1.500       .  S
C314        C315   1.411       .  A
C315        H318   1.083       .  S
C319       C1391   1.495       .  S
C319        C320   1.409       .  A
C319        C324   1.403       .  A
C320        C321   1.408       .  A
C320        H325   1.083       .  S
C321        C817   1.502       .  S
C321        C322   1.406       .  A
C322        C323   1.407       .  A
C322        H326   1.078       .  S
C323       C1052   1.490       .  S
C323        C324   1.406       .  A
C324        H327   1.084       .  S
C328       C1503   1.476       .  S
C328        C329   1.401       .  A
C328        C333   1.402       .  A
C329        C330   1.400       .  A
C329        H334   1.084       .  S
C330       C1265   1.475       .  S
C330        C331   1.401       .  A
C331        C332   1.408       .  A
C331        H335   1.084       .  S
C332        C831   1.492       .  S
C332        C333   1.407       .  A
C333        H336   1.084       .  S
C337        C338   1.427       .  A
C337        C342   1.400       .  A
C337        H344   1.078       .  S
C338        C339   1.443       .  A
C339        C340   1.406       .  A
C339        N346   1.439       .  S
C340        C341   1.395       .  A
C340        H345   1.085       .  S
C341        C342   1.404       .  A
C342        N343   1.440       .  S
N343        H347   1.046       .  S
N343        H348   1.043       .  S
N346        H349   1.032       .  S
N346        H350   1.046       .  S
C351        C352   1.418       .  A
C351        C356   1.403       .  A
C351        H358   1.078       .  S
C352        C353   1.437       .  A
C353        C354   1.399       .  A
C353        N360   1.435       .  S
C354        C355   1.400       .  A
C354        H359   1.084       .  S
C355        C356   1.408       .  A
C356        N357   1.432       .  S
N357        H361   1.046       .  S
N357        H362   1.046       .  S
N360        H363   1.041   1_554  S
N360        H364   1.043       .  S
C365        C366   1.391       .  A
C365        C370   1.403       .  A
C365        H372   1.085       .  S
C366        C367   1.410       .  A
C367        C368   1.405       .  A
C367        N374   1.438       .  S
C368        C369   1.420       .  A
C368        H373   1.082       .  S
C369        C370   1.440       .  A
C370        N371   1.432       .  S
N371        H375   1.046       .  S
N371        H376   1.046       .  S
N374        H377   1.044       .  S
N374        H378   1.046       .  S
C379        C380   1.402       .  A
C379        C384   1.405       .  A
C379        H386   1.084       .  S
C380        C381   1.413       .  A
C381        C382   1.395       .  A
C381        N388   1.434       .  S
C382        C383   1.413       .  A
C382        H387   1.079       .  S
C383        C384   1.428       .  A
C384        N385   1.432       .  S
N385        H389   1.046       .  S
N385        H390   1.045       .  S
N388        H391   1.045       .  S
N388        H392   1.042       .  S
C393        C394   1.404       .  A
C393        C398   1.409       .  A
C393        H400   1.082       .  S
C394        C395   1.411       .  A
C395        C396   1.403       .  A
C395        N402   1.439       .  S
C396        C397   1.427       .  A
C396        H401   1.078       .  S
C397        C398   1.427       .  A
C398        N399   1.420       .  S
N399        H403   1.046       .  S
N399        H404   1.046       .  S
N402        H405   1.046       .  S
N402        H406   1.046       .  S
C407        C408   1.394       .  A
C407        C412   1.403       .  A
C407        H414   1.084       .  S
C408        C409   1.403       .  A
C409        C410   1.398       .  A
C409        N416   1.433       .  S
C410        C411   1.421       .  A
C410        H415   1.079       .  S
C411        C412   1.442       .  A
C412        N413   1.441       .  S
N413        H417   1.046       .  S
N413        H418   1.036       .  S
N416        H419   1.046       .  S
N416        H420   1.045       .  S
C421        C422   1.398       .  A
C421        C426   1.403       .  A
C421        H428   1.085       .  S
C422        C423   1.409       .  A
C423        C424   1.402       .  A
C423        N430   1.438       .  S
C424        C425   1.417       .  A
C424        H429   1.071       .  S
C425        C426   1.432       .  A
C426        N427   1.433       .  S
N427        H431   1.046   1_556  S
N427        H432   1.046       .  S
N430        H433   1.043       .  S
N430        H434   1.046       .  S
C435        C436   1.417       .  A
C435        C440   1.404       .  A
C435        H442   1.081       .  S
C436        C437   1.429       .  A
C437        C438   1.407       .  A
C437        N444   1.431       .  S
C438        C439   1.401       .  A
C438        H443   1.084       .  S
C439        C440   1.408       .  A
C440        N441   1.438       .  S
N441        H445   1.046       .  S
N441        H446   1.046       .  S
N444        H447   1.046       .  S
N444        H448   1.046       .  S
C449        C450   1.417       .  A
C449        C454   1.404       .  A
C449        H456   1.084       .  S
C450        C451   1.432       .  A
C451        C452   1.408       .  A
C451        N458   1.431       .  S
C452        C453   1.401       .  A
C452        H457   1.084       .  S
C453        C454   1.411       .  A
C454        N455   1.439       .  S
N455        H459   1.046       .  S
N455        H460   1.046       .  S
N458        H461   1.046       .  S
N458        H462   1.046       .  S
C463        C464   1.424       .  A
C463        C468   1.401       .  A
C463        H470   1.079       .  S
C464        C465   1.442       .  A
C465        C466   1.402       .  A
C465        N472   1.434       .  S
C466        C467   1.393       .  A
C466        H471   1.085       .  S
C467        C468   1.409       .  A
C468        N469   1.440       .  S
N469        H473   1.046       .  S
N469        H474   1.042       .  S
N472        H475   1.025       .  S
N472        H476   1.047       .  S
C477        C478   1.400       .  A
C477        C482   1.396       .  A
C477        H484   1.083       .  S
C478        C479   1.413       .  A
C479        C480   1.409       .  A
C479        N486   1.438       .  S
C480        C481   1.417       .  A
C480        H485   1.081       .  S
C481        C482   1.440       .  A
C482        N483   1.434       .  S
N483        H487   1.040       .  S
N483        H488   1.043       .  S
N486        H489   1.046       .  S
N486        H490   1.046       .  S
C491        C492   1.417       .  A
C491        C496   1.405       .  A
C491        H498   1.080       .  S
C492        C493   1.435       .  A
C493        C494   1.404       .  A
C493        N500   1.438       .  S
C494        C495   1.401       .  A
C494        H499   1.083       .  S
C495        C496   1.416       .  A
C496        N497   1.433       .  S
N497        H501   1.041       .  S
N497        H502   1.045       .  S
N500        H503   1.044       .  S
N500        H504   1.046       .  S
C505        C506   1.424       .  A
C505        C510   1.405       .  A
C505        H512   1.074       .  S
C506        C507   1.435       .  A
C507        C508   1.409       .  A
C507        N514   1.440       .  S
C508        C509   1.397       .  A
C508        H513   1.084       .  S
C509        C510   1.398       .  A
C510        N511   1.438       .  S
N511        H515   1.045       .  S
N511        H516   1.046       .  S
N514        H517   1.042       .  S
N514        H518   1.045       .  S
C519        C520   1.411       .  A
C519        C524   1.411       .  A
C519        H526   1.066       .  S
C520        C521   1.430       .  A
C521        C522   1.402       .  A
C521        N528   1.434       .  S
C522        C523   1.409       .  A
C522        H527   1.079       .  S
C523        C524   1.422       .  A
C524        N525   1.437       .  S
N525        H529   1.046       .  S
N525        H530   1.046       .  S
N528        H531   1.046       .  S
N528        H532   1.046       .  S
C533        C534   1.405       .  A
C533        C538   1.410       .  A
C533        H540   1.083       .  S
C534        C535   1.417       .  A
C535        C536   1.397       .  A
C535        N542   1.435       .  S
C536        C537   1.418       .  A
C536        H541   1.076       .  S
C537        C538   1.425       .  A
C538        N539   1.431       .  S
N539        H543   1.046       .  S
N539        H544   1.046       .  S
N542        H545   1.046       .  S
N542        H546   1.041       .  S
C547        C548   1.398       .  A
C547        C552   1.403       .  A
C547        H554   1.083       .  S
C548        C549   1.415       .  A
C549        C550   1.402       .  A
C549        N556   1.433       .  S
C550        C551   1.417       .  A
C550        H555   1.084       .  S
C551        C552   1.436       .  A
C552        N553   1.438       .  S
N553        H557   1.046       .  S
N553        H558   1.044       .  S
N556        H559   1.045       .  S
N556        H560   1.042       .  S
C561        C562   1.402       .  A
C561        C566   1.397       .  A
C561        H568   1.084       .  S
C562        C563   1.418       .  A
C563        C564   1.406       .  A
C563        N570   1.437       .  S
C564        C565   1.416       .  A
C564        H569   1.079       .  S
C565        C566   1.422       .  A
C566        N567   1.433       .  S
N567        H571   1.046       .  S
N567        H572   1.046       .  S
N570        H573   1.043       .  S
N570        H574   1.045       .  S
C575        C576   1.397       .  A
C575        C580   1.403       .  A
C575        H582   1.084       .  S
C576        C577   1.414       .  A
C577        C578   1.403       .  A
C577        N584   1.438       .  S
C578        C579   1.416       .  A
C578        H583   1.083       .  S
C579        C580   1.432       .  A
C580        N581   1.433       .  S
N581        H585   1.046   1_545  S
N581        H586   1.046       .  S
N584        H587   1.043       .  S
N584        H588   1.046       .  S
C589        C590   1.418       .  A
C589        C594   1.407       .  A
C589        H596   1.083       .  S
C590        C591   1.440       .  A
C591        C592   1.394       .  A
C591        N598   1.434       .  S
C592        C593   1.399       .  A
C592        H597   1.083       .  S
C593        C594   1.412       .  A
C594        N595   1.438       .  S
N595        H599   1.046       .  S
N595        H600   1.045       .  S
N598        H601   1.042       .  S
N598        H602   1.043       .  S
C603        C604   1.404       .  A
C603        C608   1.408       .  A
C603        H610   1.083       .  S
C604        C605   1.416       .  A
C605        C606   1.396       .  A
C605        N612   1.434       .  S
C606        C607   1.417       .  A
C606        H611   1.076       .  S
C607        C608   1.426       .  A
C608        N609   1.430       .  S
N609        H613   1.046       .  S
N609        H614   1.045       .  S
N612        H615   1.045       .  S
N612        H616   1.042       .  S
C617        C618   1.422       .  A
C617        C622   1.402       .  A
C617        H624   1.075       .  S
C618        C619   1.437       .  A
C619        C620   1.403       .  A
C619        N626   1.434       .  S
C620        C621   1.404       .  A
C620        H625   1.083       .  S
C621        C622   1.409       .  A
C622        N623   1.439       .  S
N623        H627   1.046       .  S
N623        H628   1.046       .  S
N626        H629   1.041       .  S
N626        H630   1.042   1_565  S
C631        C632   1.419       .  A
C631        C636   1.405       .  A
C631        H638   1.084       .  S
C632        C633   1.434       .  A
C633        C634   1.397       .  A
C633        N640   1.431       .  S
C634        C635   1.398       .  A
C634        H639   1.084       .  S
C635        C636   1.418       .  A
C636        N637   1.440       .  S
N637        H641   1.046       .  S
N637        H642   1.042       .  S
N640        H643   1.046       .  S
N640        H644   1.046       .  S
C645        C646   1.419       .  A
C645        C650   1.400       .  A
C645        H652   1.074       .  S
C646        C647   1.437       .  A
C647        C648   1.404       .  A
C647        N654   1.435       .  S
C648        C649   1.405       .  A
C648        H653   1.083       .  S
C649        C650   1.409       .  A
C650        N651   1.440       .  S
N651        H655   1.046       .  S
N651        H656   1.046       .  S
N654        H657   1.042       .  S
N654        H658   1.042   1_655  S
C659        C660   1.404       .  A
C659        C664   1.412       .  A
C659        H666   1.083       .  S
C660        C661   1.411       .  A
C661        C662   1.391       .  A
C661        N668   1.435       .  S
C662        C663   1.418       .  A
C662        H667   1.076       .  S
C663        C664   1.432       .  A
C664        N665   1.440       .  S
N665        H669   1.045       .  S
N665        H670   1.042       .  S
N668        H671   1.046       .  S
N668        H672   1.041       .  S
C673        C674   1.395       .  A
C673        C678   1.405       .  A
C673        H680   1.084       .  S
C674        C675   1.404       .  A
C675        C676   1.401       .  A
C675        N682   1.433       .  S
C676        C677   1.422       .  A
C676        H681   1.078       .  S
C677        C678   1.430       .  A
C678        N679   1.432       .  S
N679        H683   1.046       .  S
N679        H684   1.046       .  S
N682        H685   1.045       .  S
N682        H686   1.046       .  S
C687        C688   1.415       .  A
C687        C692   1.398       .  A
C687        H694   1.084       .  S
C688        C689   1.432       .  A
C689        C690   1.406       .  A
C689        N696   1.431       .  S
C690        C691   1.402       .  A
C690        H695   1.084       .  S
C691        C692   1.417       .  A
C692        N693   1.434       .  S
N693        H697   1.042       .  S
N693        H698   1.045       .  S
N696        H699   1.046       .  S
N696        H700   1.046       .  S
C701        C702   1.406       .  A
C701        C706   1.404       .  A
C701        H708   1.081       .  S
C702        C703   1.418       .  A
C703        C704   1.412       .  A
C703        N710   1.438       .  S
C704        C705   1.419       .  A
C704        H709   1.075       .  S
C705        C706   1.427       .  A
C706        N707   1.434       .  S
N707        H711   1.046       .  S
N707        H712   1.046       .  S
N710        H713   1.045       .  S
N710        H714   1.045       .  S
C715        C716   1.425       .  A
C715        C720   1.408       .  A
C715        H722   1.073       .  S
C716        C717   1.444       .  A
C717        C718   1.400       .  A
C717        N724   1.429       .  S
C718        C719   1.390       .  A
C718        H723   1.085       .  S
C719        C720   1.399       .  A
C720        N721   1.438       .  S
N721        H725   1.045       .  S
N721        H726   1.045       .  S
N724        H727   1.042       .  S
N724        H728   1.039       .  S
C729        C730   1.403       .  A
C729        C734   1.406       .  A
C729        H736   1.084       .  S
C730        C731   1.409       .  A
C731        C732   1.396       .  A
C731        N738   1.440       .  S
C732        C733   1.420       .  A
C732        H737   1.076       .  S
C733        C734   1.435       .  A
C734        N735   1.436       .  S
N735        H739   1.045       .  S
N735        H740   1.036       .  S
N738        H741   1.046       .  S
N738        H742   1.046       .  S
C743        C744   1.391   1_455  A
C743        C748   1.397       .  A
C743        H750   1.085       .  S
C744        C745   1.411       .  A
C745        C746   1.401       .  A
C745        N752   1.441       .  S
C746        C747   1.420   1_655  A
C746        H751   1.076       .  S
C747        C748   1.445       .  A
C748        N749   1.441       .  S
N749        H753   1.046       .  S
N749        H754   1.034       .  S
N752        H755   1.042       .  S
N752        H756   1.046       .  S
C757        C758   1.390   1_455  A
C757        C762   1.394       .  A
C757        H764   1.085       .  S
C758        C759   1.410       .  A
C759        C760   1.400       .  A
C759        N766   1.439       .  S
C760        C761   1.420   1_655  A
C760        H765   1.077       .  S
C761        C762   1.446       .  A
C762        N763   1.439       .  S
N763        H767   1.046       .  S
N763        H768   1.035       .  S
N766        H769   1.043       .  S
N766        H770   1.045       .  S
C771        C772   1.393       .  A
C771        C776   1.387       .  A
C771        H778   1.084       .  S
C772        C773   1.412       .  A
C773        C774   1.416       .  A
C773        N780   1.437       .  S
C774        C775   1.420       .  A
C774        H779   1.083       .  S
C775        C776   1.439       .  A
C776        N777   1.434       .  S
N777        H781   1.046       .  S
N777        H782   1.046       .  S
N780        H783   1.045       .  S
N780        H784   1.046       .  S
C785        C786   1.391   1_455  A
C785        C790   1.394       .  A
C785        H792   1.085       .  S
C786        C787   1.412       .  A
C787        C788   1.401       .  A
C787        N794   1.439       .  S
C788        C789   1.416   1_655  A
C788        H793   1.078       .  S
C789        C790   1.430       .  A
C790        N791   1.433       .  S
N791        H795   1.046       .  S
N791        H796   1.046       .  S
N794        H797   1.043       .  S
N794        H798   1.045       .  S
C799        C800   1.398   1_455  A
C799        C804   1.403       .  A
C799        H806   1.085       .  S
C800        C801   1.407       .  A
C801        C802   1.392       .  A
C801        N808   1.439       .  S
C802        C803   1.419       .  A
C802        H807   1.081       .  S
C803        C804   1.427   1_655  A
C804        N805   1.430       .  S
N805        H809   1.046       .  S
N805        H810   1.046       .  S
N808        H811   1.042       .  S
N808        H812   1.045       .  S
C813        C814   1.419       .  A
C813        C818   1.404       .  A
C813        H820   1.075       .  S
C814        C815   1.437       .  A
C815        C816   1.404       .  A
C815        N822   1.435       .  S
C816        C817   1.403       .  A
C816        H821   1.083       .  S
C817        C818   1.412       .  A
C818        N819   1.440       .  S
N819        H823   1.046       .  S
N819        H824   1.046       .  S
N822        H825   1.042       .  S
N822        H826   1.043       .  S
C827        C828   1.419       .  A
C827        C832   1.400       .  A
C827        H834   1.077       .  S
C828        C829   1.435       .  A
C829        C830   1.400       .  A
C829        N836   1.435       .  S
C830        C831   1.402       .  A
C830        H835   1.084       .  S
C831        C832   1.414       .  A
C832        N833   1.441       .  S
N833        H837   1.046       .  S
N833        H838   1.042       .  S
N836        H839   1.042       .  S
N836        H840   1.043       .  S
C841        C842   1.394       .  A
C841        C846   1.401       .  A
C841        H848   1.084       .  S
C842        C843   1.404       .  A
C843        C844   1.402       .  A
C843        N850   1.439       .  S
C844        C845   1.420       .  A
C844        H849   1.076       .  S
C845        C846   1.431       .  A
C846        N847   1.434       .  S
N847        H851   1.046       .  S
N847        H852   1.046       .  S
N850        H853   1.045       .  S
N850        H854   1.046       .  S
C855        C856   1.392       .  A
C855        C860   1.402       .  A
C855        H862   1.084       .  S
C856        C857   1.406       .  A
C857        C858   1.407       .  A
C857        N864   1.438       .  S
C858        C859   1.416       .  A
C858        H863   1.078       .  S
C859        C860   1.436       .  A
C860        N861   1.439       .  S
N861        H865   1.046       .  S
N861        H866   1.043       .  S
N864        H867   1.045       .  S
N864        H868   1.046       .  S
C869        C870   1.393       .  A
C869        C874   1.399       .  A
C869        H876   1.084       .  S
C870        C871   1.408       .  A
C871        C872   1.407       .  A
C871        N878   1.439       .  S
C872        C873   1.418       .  A
C872        H877   1.078       .  S
C873        C874   1.432       .  A
C874        N875   1.434       .  S
N875        H879   1.046       .  S
N875        H880   1.046       .  S
N878        H881   1.045       .  S
N878        H882   1.045       .  S
C883        C884   1.392       .  A
C883        C888   1.391       .  A
C883        H890   1.084       .  S
C884        C885   1.412       .  A
C885        C886   1.410       .  A
C885        N892   1.437       .  S
C886        C887   1.418   1_545  A
C886        H891   1.083       .  S
C887        C888   1.438   1_565  A
C888        N889   1.433       .  S
N889        H893   1.046       .  S
N889        H894   1.046   1_545  S
N892        H895   1.046   1_545  S
N892        H896   1.046       .  S
C897        C898   1.416   1_565  A
C897        C902   1.406       .  A
C897        H904   1.078       .  S
C898        C899   1.432       .  A
C899        C900   1.395       .  A
C899        N906   1.434       .  S
C900        C901   1.392   1_545  A
C900        H905   1.085       .  S
C901        C902   1.406       .  A
C902        N903   1.438       .  S
N903        H907   1.046       .  S
N903        H908   1.046       .  S
N906        H909   1.045       .  S
N906        H910   1.046       .  S
C911        C912   1.420       .  A
C911        C916   1.406       .  A
C911        H918   1.078       .  S
C912        C913   1.428       .  A
C913        C914   1.406       .  A
C913        N920   1.429       .  S
C914        C915   1.394       .  A
C914        H919   1.084       .  S
C915        C916   1.403       .  A
C916        N917   1.438       .  S
N917        H921   1.045       .  S
N917        H922   1.045       .  S
N920        H923   1.046       .  S
N920        H924   1.046       .  S
C925        C926   1.417       .  A
C925        C930   1.404       .  A
C925        H932   1.079       .  S
C926        C927   1.425       .  A
C927        C928   1.403       .  A
C927        N934   1.433       .  S
C928        C929   1.403       .  A
C928        H933   1.084       .  S
C929        C930   1.418       .  A
C930        N931   1.434       .  S
N931        H935   1.041       .  S
N931        H936   1.046       .  S
N934        H937   1.046       .  S
N934        H938   1.046       .  S
C939        C940   1.414       .  A
C939        C944   1.402       .  A
C939        H946   1.079       .  S
C940        C941   1.426       .  A
C941        C942   1.397       .  A
C941        N948   1.432       .  S
C942        C943   1.395       .  A
C942        H947   1.085       .  S
C943        C944   1.415       .  A
C944        N945   1.440       .  S
N945        H949   1.046       .  S
N945        H950   1.042       .  S
N948        H951   1.046       .  S
N948        H952   1.046       .  S
C953        C954   1.392       .  A
C953        C958   1.397       .  A
C953        H960   1.085       .  S
C954        C955   1.408       .  A
C955        C956   1.410       .  A
C955        N962   1.438       .  S
C956        C957   1.417       .  A
C956        H961   1.080       .  S
C957        C958   1.428       .  A
C958        N959   1.430       .  S
N959        H963   1.046       .  S
N959        H964   1.046       .  S
N962        H965   1.045       .  S
N962        H966   1.046       .  S
C967        C968   1.395       .  A
C967        C972   1.403       .  A
C967        H974   1.084       .  S
C968        C969   1.412   1_545  A
C969        C970   1.400       .  A
C969        N976   1.439       .  S
C970        C971   1.414   1_565  A
C970        H975   1.079       .  S
C971        C972   1.436       .  A
C972        N973   1.441       .  S
N973        H977   1.046       .  S
N973        H978   1.043       .  S
N976        H979   1.043       .  S
N976        H980   1.045       .  S
C981        C982   1.406       .  A
C981        C986   1.407       .  A
C981        H988   1.084   1_545  S
C982        C983   1.404       .  A
C983        C984   1.400       .  A
C983        N990   1.439       .  S
C984        C985   1.422       .  A
C984        H989   1.080       .  S
C985        C986   1.418       .  A
C986        N987   1.430   1_545  S
N987        H991   1.046   1_565  S
N987        H992   1.046       .  S
N990        H993   1.046       .  S
N990        H994   1.046       .  S
C995        C996   1.395       .  A
C995       C1000   1.397       .  A
C995       H1002   1.084       .  S
C996        C997   1.415       .  A
C997        C998   1.411       .  A
C997       N1004   1.437       .  S
C998        C999   1.414       .  A
C998       H1003   1.083       .  S
C999       C1000   1.436       .  A
C1000      N1001   1.433       .  S
N1001      H1005   1.046       .  S
N1001      H1006   1.046       .  S
N1004      H1007   1.046       .  S
N1004      H1008   1.046       .  S
C1009      C1010   1.425       .  A
C1009      C1014   1.407       .  A
C1009      H1016   1.082       .  S
C1010      C1011   1.444       .  A
C1011      C1012   1.395       .  A
C1011      N1018   1.422       .  S
C1012      C1013   1.390       .  A
C1012      H1017   1.085       .  S
C1013      C1014   1.412       .  A
C1014      N1015   1.438       .  S
N1015      H1019   1.045       .  S
N1015      H1020   1.043       .  S
N1018      H1021   1.035       .  S
N1018      H1022   1.042       .  S
C1023      C1024   1.426       .  A
C1023      C1028   1.395       .  A
C1023      H1030   1.071       .  S
C1024      C1025   1.452       .  A
C1025      C1026   1.416       .  A
C1025      N1032   1.444       .  S
C1026      C1027   1.404       .  A
C1026      H1031   1.083       .  S
C1027      C1028   1.409       .  A
C1028      N1029   1.438       .  S
N1029      H1033   1.045       .  S
N1029      H1034   1.044       .  S
N1032      H1035   1.037       .  S
N1032      H1036   1.046       .  S
C1037      C1038   1.417       .  A
C1037      C1042   1.402       .  A
C1037      H1044   1.084       .  S
C1038      C1039   1.430       .  A
C1039      C1040   1.402       .  A
C1039      N1046   1.432       .  S
C1040      C1041   1.403       .  A
C1040      H1045   1.083       .  S
C1041      C1042   1.420       .  A
C1042      N1043   1.433       .  S
N1043      H1047   1.045       .  S
N1043      H1048   1.041       .  S
N1046      H1049   1.046       .  S
N1046      H1050   1.046       .  S
C1051      C1052   1.403       .  A
C1051      C1056   1.405       .  A
C1051      H1058   1.084       .  S
C1052      C1053   1.412       .  A
C1053      C1054   1.395       .  A
C1053      N1060   1.434       .  S
C1054      C1055   1.418       .  A
C1054      H1059   1.075       .  S
C1055      C1056   1.427       .  A
C1056      N1057   1.434       .  S
N1057      H1061   1.046       .  S
N1057      H1062   1.045       .  S
N1060      H1063   1.046       .  S
N1060      H1064   1.041       .  S
C1065      C1066   1.394       .  A
C1065      C1070   1.400       .  A
C1065      H1072   1.085       .  S
C1066      C1067   1.397       .  A
C1067      C1068   1.399       .  A
C1067      N1074   1.437       .  S
C1068      C1069   1.430       .  A
C1068      H1073   1.084       .  S
C1069      C1070   1.440       .  A
C1070      N1071   1.429       .  S
N1071      H1075   1.042       .  S
N1071      H1076   1.042       .  S
N1074      H1077   1.045       .  S
N1074      H1078   1.046       .  S
C1079      C1080   1.397   1_545  A
C1079      C1084   1.403       .  A
C1079      H1086   1.083       .  S
C1080      C1081   1.400       .  A
C1081      C1082   1.401       .  A
C1081      N1088   1.438       .  S
C1082      C1083   1.426   1_565  A
C1082      H1087   1.083       .  S
C1083      C1084   1.429       .  A
C1084      N1085   1.429       .  S
N1085      H1089   1.046       .  S
N1085      H1090   1.046       .  S
N1088      H1091   1.045       .  S
N1088      H1092   1.046       .  S
C1093      C1094   1.393       .  A
C1093      C1098   1.393       .  A
C1093      H1100   1.082       .  S
C1094      C1095   1.409   1_565  A
C1095      C1096   1.410       .  A
C1095      N1102   1.438       .  S
C1096      C1097   1.416   1_545  A
C1096      H1101   1.079       .  S
C1097      C1098   1.426       .  A
C1098      N1099   1.433       .  S
N1099      H1103   1.046       .  S
N1099      H1104   1.046       .  S
N1102      H1105   1.046       .  S
N1102      H1106   1.046       .  S
C1107      C1108   1.391       .  A
C1107      C1112   1.399       .  A
C1107      H1114   1.085       .  S
C1108      C1109   1.411       .  A
C1109      C1110   1.398       .  A
C1109      N1116   1.438       .  S
C1110      C1111   1.417       .  A
C1110      H1115   1.077       .  S
C1111      C1112   1.434       .  A
C1112      N1113   1.433       .  S
N1113      H1117   1.046       .  S
N1113      H1118   1.046       .  S
N1116      H1119   1.041       .  S
N1116      H1120   1.045       .  S
C1121      C1122   1.424       .  A
C1121      C1126   1.398       .  A
C1121      H1128   1.077       .  S
C1122      C1123   1.444       .  A
C1123      C1124   1.404       .  A
C1123      N1130   1.439       .  S
C1124      C1125   1.393       .  A
C1124      H1129   1.085       .  S
C1125      C1126   1.406       .  A
C1126      N1127   1.439       .  S
N1127      H1131   1.045       .  S
N1127      H1132   1.043       .  S
N1130      H1133   1.030       .  S
N1130      H1134   1.046       .  S
C1135      C1136   1.420       .  A
C1135      C1140   1.401       .  A
C1135      H1142   1.079       .  S
C1136      C1137   1.439       .  A
C1137      C1138   1.401       .  A
C1137      N1144   1.440       .  S
C1138      C1139   1.401       .  A
C1138      H1143   1.084       .  S
C1139      C1140   1.415       .  A
C1140      N1141   1.434       .  S
N1141      H1145   1.041       .  S
N1141      H1146   1.046       .  S
N1144      H1147   1.035       .  S
N1144      H1148   1.046       .  S
C1149      C1150   1.390       .  A
C1149      C1154   1.397       .  A
C1149      H1156   1.085       .  S
C1150      C1151   1.404       .  A
C1151      C1152   1.409       .  A
C1151      N1158   1.438       .  S
C1152      C1153   1.421       .  A
C1152      H1157   1.065       .  S
C1153      C1154   1.452       .  A
C1154      N1155   1.438       .  S
N1155      H1159   1.046       .  S
N1155      H1160   1.046       .  S
N1158      H1161   1.046       .  S
N1158      H1162   1.045       .  S
C1163      C1164   1.401   1_554  A
C1163      C1168   1.404   1_554  A
C1163      H1170   1.084       .  S
C1164      C1165   1.404       .  A
C1165      C1166   1.398       .  A
C1165      N1172   1.439       .  S
C1166      C1167   1.423       .  A
C1166      H1171   1.080       .  S
C1167      C1168   1.435       .  A
C1168      N1169   1.435   1_556  S
N1169      H1173   1.045       .  S
N1169      H1174   1.029       .  S
N1172      H1175   1.046       .  S
N1172      H1176   1.046       .  S
C1177      C1178   1.402   1_556  A
C1177      C1182   1.408       .  A
C1177      H1184   1.084       .  S
C1178      C1179   1.402       .  A
C1179      C1180   1.397       .  A
C1179      N1186   1.439       .  S
C1180      C1181   1.416       .  A
C1180      H1185   1.078       .  S
C1181      C1182   1.423   1_554  A
C1182      N1183   1.431       .  S
N1183      H1187   1.045       .  S
N1183      H1188   1.046       .  S
N1186      H1189   1.046       .  S
N1186      H1190   1.046       .  S
C1191      C1192   1.404       .  A
C1191      C1196   1.406       .  A
C1191      H1198   1.084       .  S
C1192      C1193   1.406       .  A
C1193      C1194   1.392       .  A
C1193      N1200   1.441       .  S
C1194      C1195   1.422       .  A
C1194      H1199   1.073       .  S
C1195      C1196   1.434       .  A
C1196      N1197   1.433       .  S
N1197      H1201   1.043       .  S
N1197      H1202   1.042       .  S
N1200      H1203   1.046       .  S
N1200      H1204   1.046       .  S
C1205      C1206   1.414       .  A
C1205      C1210   1.401       .  A
C1205      H1212   1.078       .  S
C1206      C1207   1.432       .  A
C1207      C1208   1.398       .  A
C1207      N1214   1.431       .  S
C1208      C1209   1.391       .  A
C1208      H1213   1.085       .  S
C1209      C1210   1.413       .  A
C1210      N1211   1.440       .  S
N1211      H1215   1.046       .  S
N1211      H1216   1.042       .  S
N1214      H1217   1.046       .  S
N1214      H1218   1.046       .  S
C1219      C1220   1.415   1_545  A
C1219      C1224   1.407       .  A
C1219      H1226   1.078       .  S
C1220      C1221   1.428       .  A
C1221      C1222   1.398       .  A
C1221      N1228   1.431       .  S
C1222      C1223   1.392       .  A
C1222      H1227   1.085       .  S
C1223      C1224   1.406   1_565  A
C1224      N1225   1.437       .  S
N1225      H1229   1.046       .  S
N1225      H1230   1.045       .  S
N1228      H1231   1.045       .  S
N1228      H1232   1.045       .  S
C1233      C1234   1.408       .  A
C1233      C1238   1.411       .  A
C1233      H1240   1.083       .  S
C1234      C1235   1.402   1_565  A
C1235      C1236   1.396       .  A
C1235      N1242   1.440       .  S
C1236      C1237   1.428       .  A
C1236      H1241   1.072       .  S
C1237      C1238   1.427   1_545  A
C1238      N1239   1.435       .  S
N1239      H1243   1.046   1_565  S
N1239      H1244   1.046       .  S
N1242      H1245   1.046       .  S
N1242      H1246   1.046       .  S
C1247      C1248   1.414       .  A
C1247      C1252   1.398       .  A
C1247      H1254   1.079       .  S
C1248      C1249   1.435       .  A
C1249      C1250   1.401       .  A
C1249      N1256   1.435       .  S
C1250      C1251   1.403       .  A
C1250      H1255   1.083       .  S
C1251      C1252   1.412       .  A
C1252      N1253   1.434       .  S
N1253      H1257   1.046       .  S
N1253      H1258   1.046       .  S
N1256      H1259   1.041       .  S
N1256      H1260   1.042       .  S
C1261      C1262   1.419       .  A
C1261      C1266   1.402       .  A
C1261      H1268   1.084       .  S
C1262      C1263   1.432       .  A
C1263      C1264   1.403       .  A
C1263      N1270   1.431       .  S
C1264      C1265   1.394       .  A
C1264      H1269   1.084       .  S
C1265      C1266   1.410       .  A
C1266      N1267   1.439       .  S
N1267      H1271   1.045       .  S
N1267      H1272   1.044       .  S
N1270      H1273   1.046       .  S
N1270      H1274   1.046       .  S
C1275      C1276   1.419       .  A
C1275      C1280   1.396       .  A
C1275      H1282   1.082       .  S
C1276      C1277   1.426       .  A
C1277      C1278   1.403       .  A
C1277      N1284   1.432       .  S
C1278      C1279   1.400       .  A
C1278      H1283   1.085       .  S
C1279      C1280   1.406       .  A
C1280      N1281   1.440       .  S
N1281      H1285   1.046       .  S
N1281      H1286   1.043       .  S
N1284      H1287   1.046       .  S
N1284      H1288   1.046       .  S
C1289      C1290   1.394       .  A
C1289      C1294   1.398       .  A
C1289      H1296   1.085       .  S
C1290      C1291   1.404       .  A
C1291      C1292   1.393       .  A
C1291      N1298   1.439       .  S
C1292      C1293   1.424       .  A
C1292      H1297   1.084       .  S
C1293      C1294   1.439       .  A
C1294      N1295   1.430       .  S
N1295      H1299   1.038       .  S
N1295      H1300   1.042       .  S
N1298      H1301   1.042       .  S
N1298      H1302   1.045       .  S
C1303      C1304   1.421       .  A
C1303      C1308   1.392       .  A
C1303      H1310   1.065       .  S
C1304      C1305   1.433       .  A
C1305      C1306   1.404       .  A
C1305      N1312   1.433       .  S
C1306      C1307   1.398       .  A
C1306      H1311   1.084       .  S
C1307      C1308   1.404       .  A
C1308      N1309   1.440       .  S
N1309      H1313   1.045       .  S
N1309      H1314   1.042       .  S
N1312      H1315   1.046       .  S
N1312      H1316   1.046       .  S
C1317      C1318   1.423       .  A
C1317      C1322   1.398       .  A
C1317      H1324   1.084       .  S
C1318      C1319   1.430   1_556  A
C1319      C1320   1.409       .  A
C1319      N1326   1.436       .  S
C1320      C1321   1.398   1_554  A
C1320      H1325   1.083       .  S
C1321      C1322   1.401       .  A
C1322      N1323   1.439       .  S
N1323      H1327   1.046       .  S
N1323      H1328   1.045       .  S
N1326      H1329   1.046       .  S
N1326      H1330   1.046       .  S
C1331      C1332   1.406       .  A
C1331      C1336   1.408       .  A
C1331      H1338   1.083       .  S
C1332      C1333   1.408       .  A
C1333      C1334   1.397       .  A
C1333      N1340   1.440       .  S
C1334      C1335   1.421       .  A
C1334      H1339   1.075       .  S
C1335      C1336   1.423       .  A
C1336      N1337   1.432       .  S
N1337      H1341   1.046   1_556  S
N1337      H1342   1.046       .  S
N1340      H1343   1.046   1_556  S
N1340      H1344   1.046       .  S
C1345      C1346   1.417       .  A
C1345      C1350   1.405       .  A
C1345      H1352   1.080       .  S
C1346      C1347   1.423       .  A
C1347      C1348   1.401       .  A
C1347      N1354   1.431       .  S
C1348      C1349   1.401       .  A
C1348      H1353   1.084       .  S
C1349      C1350   1.417       .  A
C1350      N1351   1.433       .  S
N1351      H1355   1.042       .  S
N1351      H1356   1.046       .  S
N1354      H1357   1.046       .  S
N1354      H1358   1.046       .  S
C1359      C1360   1.415       .  A
C1359      C1364   1.407       .  A
C1359      H1366   1.072       .  S
C1360      C1361   1.436       .  A
C1361      C1362   1.407       .  A
C1361      N1368   1.433       .  S
C1362      C1363   1.394       .  A
C1362      H1367   1.084       .  S
C1363      C1364   1.404       .  A
C1364      N1365   1.438       .  S
N1365      H1369   1.045       .  S
N1365      H1370   1.045       .  S
N1368      H1371   1.046       .  S
N1368      H1372   1.046       .  S
C1373      C1374   1.420       .  A
C1373      C1378   1.400       .  A
C1373      H1380   1.075       .  S
C1374      C1375   1.428       .  A
C1375      C1376   1.409       .  A
C1375      N1382   1.433       .  S
C1376      C1377   1.405       .  A
C1376      H1381   1.083       .  S
C1377      C1378   1.415       .  A
C1378      N1379   1.434       .  S
N1379      H1383   1.041       .  S
N1379      H1384   1.046       .  S
N1382      H1385   1.045       .  S
N1382      H1386   1.046       .  S
C1387      C1388   1.420       .  A
C1387      C1392   1.406       .  A
C1387      H1394   1.084       .  S
C1388      C1389   1.435       .  A
C1389      C1390   1.400       .  A
C1389      N1396   1.431       .  S
C1390      C1391   1.397       .  A
C1390      H1395   1.084       .  S
C1391      C1392   1.417       .  A
C1392      N1393   1.437       .  S
N1393      H1397   1.045       .  S
N1393      H1398   1.043       .  S
N1396      H1399   1.046       .  S
N1396      H1400   1.046       .  S
C1401      C1402   1.394       .  A
C1401      C1406   1.392       .  A
C1401      H1408   1.085       .  S
C1402      C1403   1.411       .  A
C1403      C1404   1.411       .  A
C1403      N1410   1.437       .  S
C1404      C1405   1.417       .  A
C1404      H1409   1.081       .  S
C1405      C1406   1.444       .  A
C1406      N1407   1.438       .  S
N1407      H1411   1.044       .  S
N1407      H1412   1.033       .  S
N1410      H1413   1.046       .  S
N1410      H1414   1.046       .  S
C1415      C1416   1.423   1_455  A
C1415      C1420   1.393       .  A
C1415      H1422   1.084       .  S
C1416      C1417   1.434       .  A
C1417      C1418   1.408       .  A
C1417      N1424   1.437       .  S
C1418      C1419   1.397   1_655  A
C1418      H1423   1.085       .  S
C1419      C1420   1.406       .  A
C1420      N1421   1.440       .  S
N1421      H1425   1.046       .  S
N1421      H1426   1.042       .  S
N1424      H1427   1.044       .  S
N1424      H1428   1.046       .  S
C1429      C1430   1.392   1_655  A
C1429      C1434   1.394       .  A
C1429      H1436   1.084       .  S
C1430      C1431   1.412       .  A
C1431      C1432   1.400       .  A
C1431      N1438   1.439       .  S
C1432      C1433   1.417       .  A
C1432      H1437   1.079       .  S
C1433      C1434   1.431   1_455  A
C1434      N1435   1.434       .  S
N1435      H1439   1.046       .  S
N1435      H1440   1.046       .  S
N1438      H1441   1.042       .  S
N1438      H1442   1.045       .  S
C1443      C1444   1.393       .  A
C1443      C1448   1.397       .  A
C1443      H1450   1.085       .  S
C1444      C1445   1.406       .  A
C1445      C1446   1.409       .  A
C1445      N1452   1.438       .  S
C1446      C1447   1.417       .  A
C1446      H1451   1.076       .  S
C1447      C1448   1.432       .  A
C1448      N1449   1.434       .  S
N1449      H1453   1.046       .  S
N1449      H1454   1.045       .  S
N1452      H1455   1.045       .  S
N1452      H1456   1.045       .  S
C1457      C1458   1.424   1_655  A
C1457      C1462   1.394       .  A
C1457      H1464   1.084       .  S
C1458      C1459   1.434       .  A
C1459      C1460   1.409       .  A
C1459      N1466   1.435       .  S
C1460      C1461   1.398       .  A
C1460      H1465   1.084       .  S
C1461      C1462   1.407   1_455  A
C1462      N1463   1.441       .  S
N1463      H1467   1.046       .  S
N1463      H1468   1.042       .  S
N1466      H1469   1.044       .  S
N1466      H1470   1.046       .  S
C1471      C1472   1.414   1_455  A
C1471      C1476   1.401       .  A
C1471      H1478   1.077       .  S
C1472      C1473   1.431       .  A
C1473      C1474   1.398       .  A
C1473      N1480   1.434       .  S
C1474      C1475   1.393   1_655  A
C1474      H1479   1.085       .  S
C1475      C1476   1.417       .  A
C1476      N1477   1.438       .  S
N1477      H1481   1.046       .  S
N1477      H1482   1.040       .  S
N1480      H1483   1.046       .  S
N1480      H1484   1.046       .  S
C1485      C1486   1.412       .  A
C1485      C1490   1.399       .  A
C1485      H1492   1.080       .  S
C1486      C1487   1.423       .  A
C1487      C1488   1.404       .  A
C1487      N1494   1.433       .  S
C1488      C1489   1.403       .  A
C1488      H1493   1.083       .  S
C1489      C1490   1.417       .  A
C1490      N1491   1.434       .  S
N1491      H1495   1.042       .  S
N1491      H1496   1.046       .  S
N1494      H1497   1.045       .  S
N1494      H1498   1.045       .  S
C1499      C1500   1.418       .  A
C1499      C1504   1.402       .  A
C1499      H1506   1.082       .  S
C1500      C1501   1.431       .  A
C1501      C1502   1.402       .  A
C1501      N1508   1.433       .  S
C1502      C1503   1.395       .  A
C1502      H1507   1.085       .  S
C1503      C1504   1.409       .  A
C1504      N1505   1.439       .  S
N1505      H1509   1.046       .  S
N1505      H1510   1.043       .  S
N1508      H1511   1.046       .  S
N1508      H1512   1.046       .  S
C1513      C1514   1.419       .  A
C1513      C1518   1.394       .  A
C1513      H1520   1.081       .  S
C1514      C1515   1.421       .  A
C1515      C1516   1.405       .  A
C1515      N1522   1.430       .  S
C1516      C1517   1.403       .  A
C1516      H1521   1.084       .  S
C1517      C1518   1.404       .  A
C1518      N1519   1.433       .  S
N1519      H1523   1.046       .  S
N1519      H1524   1.046       .  S
N1522      H1525   1.046       .  S
N1522      H1526   1.046       .  S
C1527      C1528   1.426       .  A
C1527      C1532   1.405       .  A
C1527      H1534   1.083       .  S
C1528      C1529   1.430       .  A
C1529      C1530   1.405       .  A
C1529      N1536   1.429       .  S
C1530      C1531   1.398       .  A
C1530      H1535   1.085       .  S
C1531      C1532   1.401       .  A
C1532      N1533   1.438       .  S
N1533      H1537   1.046       .  S
N1533      H1538   1.045       .  S
N1536      H1539   1.046       .  S
N1536      H1540   1.046       .  S
C1541      C1542   1.392       .  A
C1541      C1546   1.396       .  A
C1541      H1548   1.085       .  S
C1542      C1543   1.410       .  A
C1543      C1544   1.409       .  A
C1543      N1550   1.438       .  S
C1544      C1545   1.414       .  A
C1544      H1549   1.080       .  S
C1545      C1546   1.428       .  A
C1546      N1547   1.432       .  S
N1547      H1551   1.046       .  S
N1547      H1552   1.046       .  S
N1550      H1553   1.045       .  S
N1550      H1554   1.046       .  S
C1555      C1556   1.394   1_554  A
C1555      C1560   1.402       .  A
C1555      H1562   1.085       .  S
C1556      C1557   1.414       .  A
C1557      C1558   1.403       .  A
C1557      N1564   1.439       .  S
C1558      C1559   1.414   1_556  A
C1558      H1563   1.078       .  S
C1559      C1560   1.435       .  A
C1560      N1561   1.440       .  S
N1561      H1565   1.046       .  S
N1561      H1566   1.043       .  S
N1564      H1567   1.042       .  S
N1564      H1568   1.045       .  S
C1569      C1570   1.421   1_554  A
C1569      C1574   1.400       .  A
C1569      H1576   1.077       .  S
C1570      C1571   1.428       .  A
C1571      C1572   1.412       .  A
C1571      N1578   1.437       .  S
C1572      C1573   1.403   1_556  A
C1572      H1577   1.084       .  S
C1573      C1574   1.400       .  A
C1574      N1575   1.439       .  S
N1575      H1579   1.046       .  S
N1575      H1580   1.045       .  S
N1578      H1581   1.043       .  S
N1578      H1582   1.046       .  S
C1583      C1584   1.416       .  A
C1583      C1588   1.400       .  A
C1583      H1590   1.077       .  S
C1584      C1585   1.428       .  A
C1585      C1586   1.402       .  A
C1585      N1592   1.432       .  S
C1586      C1587   1.400       .  A
C1586      H1591   1.083       .  S
C1587      C1588   1.418       .  A
C1588      N1589   1.434       .  S
N1589      H1593   1.041       .  S
N1589      H1594   1.045       .  S
N1592      H1595   1.046       .  S
N1592      H1596   1.046       .  S
C1597      C1598   1.416       .  A
C1597      C1602   1.401       .  A
C1597      H1604   1.073       .  S
C1598      C1599   1.431       .  A
C1599      C1600   1.402       .  A
C1599      N1606   1.433       .  S
C1600      C1601   1.399       .  A
C1600      H1605   1.084       .  S
C1601      C1602   1.412       .  A
C1602      N1603   1.439       .  S
N1603      H1607   1.046       .  S
N1603      H1608   1.042       .  S
N1606      H1609   1.046       .  S
N1606      H1610   1.046       .  S
C1611      C1612   1.389       .  A
C1611      C1616   1.392       .  A
C1611      H1618   1.082       .  S
C1612      C1613   1.401       .  A
C1613      C1614   1.405       .  A
C1613      N1620   1.437       .  S
C1614      C1615   1.422       .  A
C1614      H1619   1.078       .  S
C1615      C1616   1.441       .  A
C1616      N1617   1.440       .  S
N1617      H1621   1.046       .  S
N1617      H1622   1.028       .  S
N1620      H1623   1.045       .  S
N1620      H1624   1.046       .  S
C1625      C1626   1.402       .  A
C1625      C1630   1.409       .  A
C1625      H1632   1.084       .  S
C1626      C1627   1.409       .  A
C1627      C1628   1.397       .  A
C1627      N1634   1.439       .  S
C1628      C1629   1.419       .  A
C1628      H1633   1.082       .  S
C1629      C1630   1.426       .  A
C1630      N1631   1.431       .  S
N1631      H1635   1.046       .  S
N1631      H1636   1.046       .  S
N1634      H1637   1.043       .  S
N1634      H1638   1.046       .  S
C1639      C1640   1.425   1_556  A
C1639      C1644   1.393       .  A
C1639      H1646   1.064       .  S
C1640      C1641   1.441       .  A
C1641      C1642   1.413       .  A
C1641      N1648   1.435       .  S
C1642      C1643   1.400       .  A
C1642      H1647   1.084       .  S
C1643      C1644   1.401   1_554  A
C1644      N1645   1.442       .  S
N1645      H1649   1.046       .  S
N1645      H1650   1.046       .  S
N1648      H1651   1.046       .  S
N1648      H1652   1.046       .  S
C1653      C1654   1.416       .  A
C1653      C1658   1.409       .  A
C1653      H1660   1.079   1_556  S
C1654      C1655   1.444       .  A
C1655      C1656   1.390       .  A
C1655      N1662   1.440       .  S
C1656      C1657   1.393       .  A
C1656      H1661   1.085       .  S
C1657      C1658   1.410       .  A
C1658      N1659   1.437   1_556  S
N1659      H1663   1.046       .  S
N1659      H1664   1.045   1_554  S
N1662      H1665   1.031       .  S
N1662      H1666   1.045       .  S
C1667      C1668   1.395       .  A
C1667      C1672   1.396       .  A
C1667      H1674   1.084       .  S
C1668      C1669   1.414       .  A
C1669      C1670   1.410       .  A
C1669      N1676   1.438       .  S
C1670      C1671   1.414       .  A
C1670      H1675   1.081       .  S
C1671      C1672   1.445       .  A
C1672      N1673   1.438       .  S
N1673      H1677   1.045       .  S
N1673      H1678   1.034       .  S
N1676      H1679   1.046       .  S
N1676      H1680   1.046       .  S
