geometry optimzed in LAMMPS
_audit_creation_date              2020-11-30 
_audit_creation_method            'lammps2cif' 
_symmetry_space_group_name_H-M    'P1' 
_symmetry_Int_Tables_number       1 
_symmetry_cell_setting            triclinic 
loop_ 
_symmetry_equiv_pos_as_xyz 
  x,y,z 
_cell_length_a                    41.97446712 
_cell_length_b                    42.27800394781643 
_cell_length_c                    42.20747631667057 
_cell_angle_alpha                 90.06538450642532 
_cell_angle_beta                  89.85763049578088 
_cell_angle_gamma                 90.08029669690644 
loop_ 
_atom_site_label 
_atom_site_type_symbol 
_atom_site_fract_x 
_atom_site_fract_y 
_atom_site_fract_z 
_atom_site_charge 
O1          O  0.52181407  0.47540794  0.41275460    -0.78200
C2          C  0.43570627  0.53726757  0.41629115     0.82800
O3          O  0.55997936  0.56441046  0.47882901    -0.79400
O4          O  0.45408414  0.55665409  0.52522096    -0.80800
O5          O  0.45749605  0.43892465  0.50217741    -0.80600
O6          O  0.52124456  0.43699343  0.44895551    -0.79300
Zn7        Zn  0.50497135  0.51592521  0.43416707     1.55700
O8          O  0.42655101  0.48122419  0.49848425    -0.80700
Cd9        Cd  0.50328114  0.46137896  0.48996355     1.59700
Cd10       Cd  0.52965724  0.53614192  0.50790910     1.59600
O11         O  0.53714087  0.46143231  0.52939345    -0.80600
O12         O  0.49819198  0.50861116  0.47982451    -1.91200
Cd13       Cd  0.45265115  0.52177282  0.48737792     1.59900
O14         O  0.55717493  0.50932523  0.54052307    -0.80600
O15         O  0.42776228  0.53815333  0.44568256    -0.79300
C16         C  0.55896903  0.56819519  0.44876068     0.83300
C17         C  0.52695469  0.44663254  0.42062318     0.82900
O18         O  0.46393357  0.52861301  0.40863182    -0.78200
C19         C  0.42966816  0.45164919  0.50388749     0.83700
O20         O  0.53908761  0.55200405  0.43206876    -0.78300
C21         C  0.55481750  0.47987880  0.54679831     0.83900
C22         C  0.47473542  0.57345742  0.54076774     0.84200
O23         O  0.50459480  0.56866958  0.53734053    -0.80700
O24         O  0.46820199  0.32722533  0.20773317    -0.78200
C25         C  0.53417860  0.32744815  0.29125289     0.82800
O26         O  0.56805883  0.25355718  0.18146155    -0.79400
O27         O  0.54971006  0.22111123  0.28610414    -0.80800
O28         O  0.43635723  0.23730985  0.27339093    -0.80600
O29         O  0.43133511  0.28998244  0.21445702    -0.79300
Zn30       Zn  0.51215817  0.30527820  0.22242149     1.55700
O31         O  0.47388350  0.24241858  0.31016411    -0.80700
Cd32       Cd  0.45898964  0.25043518  0.23003906     1.59700
Cd33       Cd  0.53507265  0.22825788  0.21030438     1.59600
O34         O  0.46057382  0.21136993  0.19738856    -0.80600
O35         O  0.50556864  0.26067629  0.23587023    -1.91200
Cd36       Cd  0.51424379  0.25688337  0.28301793     1.59900
O37         O  0.50889219  0.19556959  0.18210611    -0.80600
O38         O  0.52962139  0.30012704  0.30346886    -0.79300
C39         C  0.57045937  0.28327728  0.17613405     0.83300
C40         C  0.43870502  0.31851038  0.20718661     0.82900
O41         O  0.52887008  0.33213227  0.26159224    -0.78200
C42         C  0.44528260  0.23537484  0.30236666     0.83700
O43         O  0.54975762  0.30297729  0.18774672    -0.78300
C44         C  0.47867857  0.19225799  0.18140968     0.83900
C45         C  0.56560624  0.20007789  0.27054447     0.84200
O46         O  0.56301851  0.19852364  0.24044653    -0.80700
C47         C  0.72775802  0.77249610  0.69474990     0.80500
N48         N  0.71017299  0.77779795  0.72117844    -0.77800
C49         C  0.71054677  0.75733169  0.74577762     0.82900
N50         N  0.72916119  0.73139883  0.74397361    -0.77800
C51         C  0.74731919  0.72566866  0.71803082     0.83000
N52         N  0.74709372  0.74656514  0.69353859    -0.79500
C53         C  0.75639142  0.95914213  0.96237436     0.80500
N54         N  0.76423537  0.97737494  0.93696350    -0.77800
C55         C  0.79164918  0.99443536  0.93683492     0.82900
N56         N  0.81124805  0.99317606  0.96232527    -0.77800
C57         C  0.80376876  0.97501606  0.98756910     0.83000
N58         N  0.77636001  0.95810414  0.98749930    -0.79500
C59         C  0.97479255  0.78368885  0.99011319     0.80500
N60         N  0.00501346  0.77606365  0.98121742    -0.77800
C61         C  0.01024282  0.75756224  0.95530183     0.82900
N62         N  0.98502759  0.74784655  0.93795912    -0.77800
C63         C  0.95501181  0.75549497  0.94651927     0.83000
N64         N  0.94989435  0.77297719  0.97272641    -0.79500
C65         C  0.95827424  0.96967132  0.71978013     0.80500
N66         N  0.96383205  0.00075225  0.72459562    -0.77800
C67         C  0.98824707  0.01063601  0.74277966     0.82900
N68         N  0.00716676  0.98885336  0.75662663    -0.77800
C69         C  0.00204708  0.95757481  0.75172127     0.83000
N70         N  0.97738264  0.94782769  0.73344465    -0.79500
N71         N  0.10738755  0.83353433  0.84366658    -0.36400
N72         N  0.15978930  0.81112598  0.87825995    -0.56900
N73         N  0.20067235  0.86686865  0.86383230    -0.36300
N74         N  0.14583603  0.89239667  0.83235457    -0.56900
C75         C  0.09348297  0.81096846  0.86172494     0.27200
C76         C  0.08469547  0.85474924  0.83687237     0.27200
C77         C  0.21485204  0.85483182  0.89041768     0.27200
C78         C  0.21142314  0.89691017  0.85809787     0.27200
C79         C  0.14265879  0.78440980  0.87529301     0.35900
C80         C  0.18894024  0.80237907  0.88718679     0.35900
C81         C  0.11854927  0.89889720  0.81658407     0.35900
C82         C  0.16689892  0.91522667  0.82366682     0.35900
C83         C  0.06132389  0.81752296  0.86551468    -0.21600
C84         C  0.05567635  0.84511294  0.84936081    -0.21600
C85         C  0.23566660  0.87778314  0.90170703    -0.21600
C86         C  0.23406754  0.90383077  0.88104497    -0.21600
C87         C  0.16084531  0.75816546  0.88220570    -0.22700
C88         C  0.19063734  0.76957060  0.88916171    -0.22700
C89         C  0.12198692  0.92628802  0.79900017    -0.22700
C90         C  0.15232536  0.93659759  0.80349935    -0.22700
C91         C  0.10963112  0.78532051  0.87557734    -0.18000
C92         C  0.08946813  0.88223141  0.81913891    -0.18000
C93         C  0.19892829  0.91816375  0.83401533    -0.18000
C94         C  0.20903544  0.82336958  0.90324671    -0.18000
H95         H  0.04383820  0.80407855  0.87875281     0.14900
H96         H  0.03301897  0.85719126  0.84778563     0.14900
H97         H  0.25061793  0.87595116  0.92246824     0.14900
H98         H  0.24685551  0.92591555  0.88367231     0.14900
H99         H  0.15281440  0.73390835  0.88428147     0.13200
H100        H  0.21049419  0.75582192  0.89781390     0.13200
H101        H  0.10430971  0.93804681  0.78459334     0.13200
H102        H  0.16224508  0.95794493  0.79333321     0.13200
H103        H  0.13090979  0.83456005  0.83582269     0.26400
H104        H  0.18446808  0.85478652  0.84969674     0.26400
N105        N  0.91478600  0.91291314  0.10627566    -0.36400
N106        N  0.87589647  0.94761391  0.15070937    -0.56900
N107        N  0.88333861  0.89379789  0.19617910    -0.36300
N108        N  0.92494953  0.86243589  0.15014647    -0.56900
C109        C  0.91243840  0.94111085  0.09184616     0.27200
C110        C  0.93779072  0.89661233  0.09128062     0.27200
C111        C  0.86863839  0.91630337  0.21428769     0.27200
C112        C  0.89979483  0.87322938  0.21522897     0.27200
C113        C  0.86799279  0.96217752  0.12322924     0.35900
C114        C  0.85124843  0.95277832  0.17062828     0.35900
C115        C  0.93327632  0.84792735  0.12288180     0.35900
C116        C  0.92103425  0.83946942  0.17182500     0.35900
C117        C  0.93455048  0.94314304  0.06751118    -0.21600
C118        C  0.95088310  0.91489995  0.06729678    -0.21600
C119        C  0.87514162  0.90947227  0.24578431    -0.21600
C120        C  0.89501950  0.88281375  0.24635206    -0.21600
C121        C  0.83887747  0.97720512  0.12595609    -0.22700
C122        C  0.82839586  0.97155242  0.15595024    -0.22700
C123        C  0.93471049  0.81551732  0.12709970    -0.22700
C124        C  0.92732256  0.81013556  0.15827065    -0.22700
C125        C  0.88569337  0.96051187  0.09491591    -0.18000
C126        C  0.94263446  0.86407377  0.09529911    -0.18000
C127        C  0.91722414  0.84545768  0.20442833    -0.18000
C128        C  0.84926693  0.94207699  0.20231468    -0.18000
H129        H  0.93690179  0.96202453  0.05036337     0.14900
H130        H  0.96865295  0.90774470  0.05011146     0.14900
H131        H  0.86687605  0.92260853  0.26622229     0.14900
H132        H  0.90435602  0.87147662  0.26733166     0.14900
H133        H  0.82618804  0.99045948  0.10808076     0.13200
H134        H  0.80607189  0.98000406  0.16559074     0.13200
H135        H  0.94158085  0.79775078  0.10992480     0.13200
H136        H  0.92721879  0.78722149  0.16960585     0.13200
H137        H  0.89838733  0.90361299  0.12219424     0.26400
H138        H  0.88100716  0.89211038  0.17175179     0.26400
N139        N  0.79860559  0.92462289  0.63075786    -0.36400
N140        N  0.78538831  0.88640346  0.57689629    -0.56900
N141        N  0.84225662  0.90298719  0.53819673    -0.36300
N142        N  0.85886698  0.93928010  0.59221905    -0.56900
C143        C  0.78035556  0.90138751  0.64306440     0.27200
C144        C  0.82117906  0.93114739  0.65225809     0.27200
C145        C  0.83365344  0.87403238  0.52654352     0.27200
C146        C  0.87388373  0.90874491  0.53252414     0.27200
C147        C  0.75755596  0.88724635  0.59282089     0.35900
C148        C  0.77867514  0.87633773  0.54760752     0.35900
C149        C  0.85525134  0.96059503  0.61575424     0.35900
C150        C  0.87737624  0.95316276  0.56995459     0.35900
C151        C  0.79012828  0.89452100  0.67365609    -0.21600
C152        C  0.81615653  0.91352255  0.67952428    -0.21600
C153        C  0.86046442  0.86116927  0.51206108    -0.21600
C154        C  0.88558335  0.88308385  0.51549042    -0.21600
C155        C  0.73265507  0.87825453  0.57357144    -0.22700
C156        C  0.74589156  0.87195351  0.54451128    -0.22700
C157        C  0.87169572  0.98804310  0.60875274    -0.22700
C158        C  0.88490780  0.98374969  0.57930653    -0.22700
C159        C  0.75736956  0.88467333  0.62564670    -0.18000
C160        C  0.84689741  0.95138978  0.64649188    -0.18000
C161        C  0.89111162  0.93639904  0.54417868    -0.18000
C162        C  0.80183569  0.86056572  0.52949312    -0.18000
H163        H  0.78054887  0.87667563  0.68940413     0.14900
H164        H  0.83053853  0.91335328  0.70077099     0.14900
H165        H  0.86192628  0.83837137  0.50047675     0.14900
H166        H  0.90985029  0.87986975  0.50741629     0.14900
H167        H  0.70834704  0.87362741  0.58075955     0.13200
H168        H  0.73349026  0.86140617  0.52465590     0.13200
H169        H  0.87538905  0.00818149  0.62415756     0.13200
H170        H  0.89959679  0.00072469  0.56697130     0.13200
H171        H  0.79686271  0.93463611  0.60822226     0.26400
H172        H  0.82673115  0.91860474  0.54945172     0.26400
N173        N  0.86261863  0.65295481  0.82728298    -0.36400
N174        N  0.84496335  0.59593352  0.80159564    -0.56900
N175        N  0.87298299  0.55617243  0.85418205    -0.36300
N176        N  0.88769226  0.61492252  0.88365685    -0.56900
C177        C  0.84145437  0.66294514  0.80543386     0.27200
C178        C  0.86229228  0.67394996  0.85102473     0.27200
C179        C  0.84834673  0.53825105  0.84291305     0.27200
C180        C  0.88051591  0.54709964  0.88434136     0.27200
C181        C  0.84130954  0.61404553  0.77568058     0.35900
C182        C  0.84567446  0.56590674  0.79169904     0.35900
C183        C  0.89952184  0.64462694  0.88549588     0.35900
C184        C  0.90936186  0.59574497  0.89783567     0.35900
C185        C  0.82816745  0.69140643  0.81498400    -0.21600
C186        C  0.84152050  0.69845956  0.84402486    -0.21600
C187        C  0.84019527  0.51671181  0.86641750    -0.21600
C188        C  0.86078155  0.52185814  0.89218027    -0.21600
C189        C  0.83943318  0.59563285  0.74894101    -0.22700
C190        C  0.84334394  0.56498775  0.75876708    -0.22700
C191        C  0.92876477  0.64448250  0.90054415    -0.22700
C192        C  0.93535098  0.61359386  0.90771988    -0.22700
C193        C  0.83428250  0.64626124  0.77750369    -0.18000
C194        C  0.88260619  0.67226737  0.87716624    -0.18000
C195        C  0.90383833  0.56304251  0.90418541    -0.18000
C196        C  0.83439919  0.54196972  0.81171479    -0.18000
H197        H  0.81056946  0.70535720  0.80257391     0.14900
H198        H  0.83662316  0.71917452  0.85830866     0.14900
H199        H  0.82147861  0.49913566  0.86520746     0.14900
H200        H  0.86017681  0.50941848  0.91456021     0.14900
H201        H  0.83252267  0.60344105  0.72579796     0.13200
H202        H  0.83978961  0.54421009  0.74416253     0.13200
H203        H  0.94388633  0.66460891  0.90566346     0.13200
H204        H  0.95718168  0.60569071  0.91858200     0.13200
H205        H  0.87781160  0.63352242  0.82589329     0.26400
H206        H  0.88455894  0.57401195  0.84155142     0.26400
N207        N  0.64616450  0.82791192  0.90767399    -0.36400
N208        N  0.59837499  0.87221319  0.93108989    -0.56900
N209        N  0.54704539  0.84832369  0.89124675    -0.36300
N210        N  0.59500682  0.80578654  0.86615110    -0.56900
C211        C  0.66392691  0.85184479  0.91906554     0.27200
C212        C  0.66245667  0.81551419  0.88319001     0.27200
C213        C  0.53443475  0.87622251  0.90172646     0.27200
C214        C  0.53292207  0.83954387  0.86349349     0.27200
C215        C  0.62220630  0.87360959  0.95244814     0.35900
C216        C  0.57205739  0.88210120  0.94632608     0.35900
C217        C  0.61825343  0.78390587  0.86267348     0.35900
C218        C  0.56895605  0.79386925  0.85172758     0.35900
C219        C  0.69258323  0.85373201  0.90273986    -0.21600
C220        C  0.69158506  0.83064903  0.87979870    -0.21600
C221        C  0.51091268  0.88511855  0.88042809    -0.21600
C222        C  0.50983289  0.86199076  0.85654829    -0.21600
C223        C  0.61136453  0.88417625  0.98139157    -0.22700
C224        C  0.57924053  0.88850687  0.97781100    -0.22700
C225        C  0.60702129  0.75782759  0.84650799    -0.22700
C226        C  0.57628399  0.76438041  0.83884258    -0.22700
C227        C  0.65407907  0.87207254  0.94343643    -0.18000
C228        C  0.65066922  0.79176514  0.86338150    -0.18000
C229        C  0.54064993  0.81126092  0.84565768    -0.18000
C230        C  0.54444896  0.89248692  0.93029277    -0.74000
H231        H  0.71175845  0.87047877  0.90637024     0.14900
H232        H  0.70979127  0.82608792  0.86218224     0.14900
H233        H  0.49617047  0.90604930  0.88177361     0.14900
H234        H  0.49410375  0.86194380  0.83628121     0.14900
H235        H  0.62534559  0.88928766  0.00230156     0.13200
H236        H  0.56323869  0.89774712  0.99556508     0.13200
H237        H  0.62076029  0.73796128  0.83778642     0.13200
H238        H  0.56235525  0.74984751  0.82308575     0.13200
H239        H  0.62386454  0.82067360  0.91592010     0.26400
H240        H  0.56408163  0.83520679  0.90328760     0.26400
N241        N  0.87826813  0.11220155  0.83059743    -0.36400
N242        N  0.83580922  0.15122025  0.86802160    -0.56900
N243        N  0.88177422  0.20423811  0.86189416    -0.36300
N244        N  0.92127309  0.16321438  0.82214692    -0.56900
C245        C  0.85180619  0.09437082  0.83101354     0.27200
C246        C  0.89744119  0.10063599  0.80782859     0.27200
C247        C  0.85557741  0.21851182  0.87447091     0.27200
C248        C  0.89879619  0.22547655  0.84418259     0.27200
C249        C  0.82622676  0.12158863  0.87574060     0.35900
C250        C  0.82840792  0.16959847  0.89318779     0.35900
C251        C  0.94053975  0.13872105  0.81584600     0.35900
C252        C  0.94034329  0.18754836  0.82933687     0.35900
C253        C  0.85370997  0.07120305  0.80781053    -0.21600
C254        C  0.88277872  0.07522651  0.79296753    -0.21600
C255        C  0.85618747  0.25005746  0.86526048    -0.21600
C256        C  0.88303838  0.25429472  0.84574582    -0.21600
C257        C  0.81240067  0.12127648  0.90555648    -0.22700
C258        C  0.81374908  0.15163792  0.91658368    -0.22700
C259        C  0.97220428  0.14729655  0.81871739    -0.22700
C260        C  0.97212718  0.17851783  0.82732819    -0.22700
C261        C  0.83039089  0.09461507  0.85642881    -0.18000
C262        C  0.92927068  0.11009908  0.80402409    -0.18000
C263        C  0.92899900  0.21850564  0.82905096    -0.18000
C264        C  0.83244114  0.20275194  0.89441307    -0.18000
H265        H  0.83694821  0.05218105  0.80363043     0.14900
H266        H  0.89272341  0.06008742  0.77477465     0.14900
H267        H  0.83892181  0.26800688  0.87151582     0.14900
H268        H  0.89049631  0.27621481  0.83477176     0.14900
H269        H  0.80264780  0.10125983  0.91827400     0.13200
H270        H  0.80508671  0.15949805  0.93943467     0.13200
H271        H  0.99303174  0.13292626  0.81412726     0.13200
H272        H  0.99307891  0.19306610  0.83054233     0.13200
H273        H  0.88464787  0.12864253  0.84778870     0.26400
H274        H  0.88826732  0.18094088  0.86647101     0.26400
O275        O  0.26093039  0.56108389  0.20193540    -0.78200
C276        C  0.18024115  0.56282923  0.26762877     0.82800
O277        O  0.30095716  0.49497291  0.29697455    -0.79400
O278        O  0.19082491  0.45192980  0.28701917    -0.80800
O279        O  0.19921741  0.46975006  0.17331541    -0.80600
O280        O  0.25978105  0.52125653  0.16747866    -0.79300
Zn281      Zn  0.24803596  0.54137692  0.24541519     1.55700
O282        O  0.16342773  0.47636710  0.21174428    -0.80700
Cd283      Cd  0.24371275  0.48255069  0.19555917     1.59700
Cd284      Cd  0.26697416  0.46784742  0.27172475     1.59600
O285        O  0.27799283  0.44389007  0.19816213    -0.80600
O286        O  0.23769546  0.49580374  0.24145054    -1.91200
Cd287      Cd  0.19104776  0.49006374  0.25230169     1.59900
O288        O  0.29578556  0.43490726  0.24715726    -0.80600
O289        O  0.17013645  0.53411591  0.26643126    -0.79300
C290        C  0.30678078  0.52431396  0.29289337     0.83300
C291        C  0.26477035  0.55053652  0.17374146     0.82900
O292        O  0.20937183  0.56912751  0.26081157    -0.78200
C293        C  0.17010011  0.46927730  0.18290046     0.83700
O294        O  0.28804575  0.54159291  0.27576005    -0.78300
C295        C  0.29552909  0.42789840  0.21783689     0.83900
C296        C  0.20979611  0.43280058  0.30192302     0.84200
O297        O  0.23994102  0.43700118  0.30107474    -0.80700
O298        O  0.27777687  0.17908566  0.52088359    -0.78200
C299        C  0.19399584  0.18192467  0.46836261     0.82800
O300        O  0.31329708  0.25591331  0.43020155    -0.79400
O301        O  0.20403875  0.28543658  0.44317789    -0.80800
O302        O  0.22522993  0.27185473  0.56154894    -0.80600
O303        O  0.28054801  0.21169264  0.56168865    -0.79300
Zn304      Zn  0.26468808  0.20484935  0.48091715     1.55700
O305        O  0.18581505  0.27281614  0.52586250    -0.80700
Cd306      Cd  0.26611128  0.25476445  0.53688650     1.59700
Cd307      Cd  0.28125726  0.27984238  0.46119260     1.59600
O308        O  0.30163181  0.29200379  0.53576476    -0.80600
O309        O  0.25441467  0.24849268  0.49048529    -1.91200
Cd310      Cd  0.20619348  0.25347139  0.48357755     1.59900
O311        O  0.30768354  0.31359370  0.48779022    -0.80600
O312        O  0.18068779  0.20856754  0.47459338    -0.79300
C313        C  0.31529504  0.22609372  0.42605515     0.83300
C314        C  0.28315675  0.18356195  0.55040424     0.82900
O315        O  0.22450396  0.18024045  0.46855857    -0.78200
C316        C  0.19621571  0.27780078  0.55407561     0.83700
O317        O  0.29906480  0.20704946  0.44400372    -0.78300
C318        C  0.31337592  0.31380634  0.51752808     0.83900
C319        C  0.22182557  0.30221530  0.42430517     0.84200
O320        O  0.25178638  0.30456858  0.42889089    -0.80700
O321        O  0.51009090  0.76890877  0.82470365    -0.78200
C322        C  0.42680820  0.71093324  0.81524838     0.82800
O323        O  0.54836260  0.67938572  0.75262686    -0.79400
O324        O  0.44345847  0.70114619  0.70167039    -0.80800
O325        O  0.45935072  0.81342415  0.73751580    -0.80600
O326        O  0.52049711  0.80802045  0.79148615    -0.79300
Zn327      Zn  0.49585495  0.73066561  0.79838884     1.55700
O328        O  0.41986355  0.77788874  0.73620784    -0.80700
Cd329      Cd  0.50124719  0.78641285  0.74942810     1.59700
Cd330      Cd  0.51944351  0.71064421  0.72460057     1.59600
O331        O  0.53545173  0.78627396  0.71141992    -0.80600
O332        O  0.48950332  0.73965079  0.75370215    -1.91200
Cd333      Cd  0.44209999  0.73198482  0.74472209     1.59900
O334        O  0.54895231  0.73822909  0.69360181    -0.80600
O335        O  0.41679817  0.71289191  0.78643968    -0.79300
C336        C  0.54786407  0.67657013  0.78285143     0.83300
C337        C  0.52057332  0.79678985  0.81965573     0.82900
O338        O  0.45564370  0.71779115  0.82155256    -0.78200
C339        C  0.42968718  0.80675360  0.73349784     0.83700
O340        O  0.52910800  0.69423633  0.79935126    -0.78300
C341        C  0.55016957  0.76834387  0.69117890     0.83900
C342        C  0.46311249  0.68533098  0.68346977     0.84200
O343        O  0.49273289  0.68390577  0.69048558    -0.80700
O344        O  0.17417405  0.71898489  0.97953366    -0.78200
C345        C  0.17874288  0.78590256  0.05874101     0.82800
O346        O  0.25026932  0.80844551  0.94020368    -0.79400
O347        O  0.28393792  0.80293002  0.04973319    -0.80800
O348        O  0.26432057  0.68356534  0.04221073    -0.80600
O349        O  0.21159198  0.68204393  0.98423584    -0.79300
Zn350      Zn  0.19829210  0.76140845  0.99106588     1.55700
O351        O  0.26117029  0.72376437  0.07601229    -0.80700
Cd352      Cd  0.25281626  0.70683842  0.99845429     1.59700
Cd353      Cd  0.27350600  0.78116230  0.97450343     1.59600
O354        O  0.29196068  0.70498214  0.96493692    -0.80600
O355        O  0.24299766  0.75370838  0.00311582    -1.91200
Cd356      Cd  0.24927035  0.76497720  0.04935669     1.59900
O357        O  0.30638620  0.75367761  0.94940429    -0.80600
O358        O  0.20641368  0.78196394  0.07075619    -0.79300
C359        C  0.22061281  0.80952587  0.93439923     0.83300
C360        C  0.18274661  0.68986790  0.97824491     0.82900
O361        O  0.17344855  0.77896920  0.02962363    -0.78200
C362        C  0.26599109  0.69422579  0.07058650     0.83700
O363        O  0.20052007  0.79382796  0.95182476    -0.78300
C364        C  0.31046406  0.72384538  0.94906943     0.83900
C365        C  0.29973153  0.82032109  0.02987240     0.84200
O366        O  0.29958717  0.81444945  0.00030107    -0.80700
O367        O  0.01024808  0.48930357  0.06714398    -0.78200
C368        C  0.95335777  0.57586362  0.06138627     0.82800
O369        O  0.92405770  0.45373809  0.99011261    -0.79400
O370        O  0.93806924  0.56540730  0.95148875    -0.80800
O371        O  0.05270624  0.54731503  0.98011013    -0.80600
O372        O  0.05088070  0.48737458  0.03366353    -0.79300
Zn373      Zn  0.97106688  0.50632873  0.04163640     1.55700
O374        O  0.01609290  0.58562676  0.97858360    -0.80700
Cd375      Cd  0.02752024  0.50513499  0.99180835     1.59700
Cd376      Cd  0.95234344  0.48793666  0.96500727     1.59600
O377        O  0.02878693  0.47227391  0.95256630    -0.80600
O378        O  0.98044779  0.51542046  0.99705456    -1.91200
Cd379      Cd  0.97228269  0.56263972  0.99041840     1.59900
O380        O  0.98084661  0.46178835  0.93205104    -0.80600
O381        O  0.95714552  0.58647695  0.03313850    -0.79300
C382        C  0.92174925  0.45103730  0.02025296     0.83300
C383        C  0.03961459  0.48302462  0.06158876     0.82900
O384        O  0.95725429  0.54633349  0.06703939    -0.78200
C385        C  0.04509898  0.57638354  0.97572962     0.83700
O386        O  0.93676362  0.47055851  0.03840787    -0.78300
C387        C  0.01114276  0.45911246  0.93102352     0.83900
C388        C  0.92235292  0.54760789  0.93191581     0.84200
O389        O  0.92373404  0.51740323  0.93464578    -0.80700
O390        O  0.31833474  0.02551666  0.78410567    -0.78200
C391        C  0.31019507  0.94130747  0.72818531     0.82800
O392        O  0.24903485  0.05830213  0.68431958    -0.79400
O393        O  0.20079814  0.95831647  0.70983184    -0.80800
O394        O  0.21903454  0.97233372  0.82314041    -0.80600
O395        O  0.28204525  0.02452225  0.82261014    -0.79300
Zn396      Zn  0.29377816  0.01246024  0.74326360     1.55700
O397        O  0.22516084  0.93491478  0.78652241    -0.80700
Cd398      Cd  0.23785958  0.01420722  0.79792281     1.59700
Cd399      Cd  0.22047661  0.03359510  0.71922253     1.59600
O400        O  0.20731512  0.05680097  0.79486064    -0.80600
O401        O  0.24784973  0.00509625  0.75114202    -1.91200
Cd402      Cd  0.23930180  0.95834457  0.74404350     1.59900
O403        O  0.19567408  0.06958384  0.74447007    -0.80600
O404        O  0.28117731  0.93217879  0.73101970    -0.79300
C405        C  0.27944909  0.06049830  0.68369566     0.83300
C406        C  0.31116735  0.02799112  0.81354412     0.82900
O407        O  0.31720020  0.97062898  0.73160256    -0.78200
C408        C  0.21775089  0.94288518  0.81491677     0.83700
O409        O  0.29593097  0.04587201  0.70514970    -0.78300
C410        C  0.19407762  0.07556164  0.77415277     0.83900
C411        C  0.18180840  0.97653043  0.69381259     0.84200
O412        O  0.18556643  0.00654982  0.69417157    -0.80700
O413        O  0.66310003  0.73685860  0.47276605    -0.78200
C414        C  0.66900354  0.79183106  0.55771568     0.82800
O415        O  0.73076754  0.81781097  0.42950273    -0.79400
O416        O  0.77598038  0.81025945  0.53868610    -0.80800
O417        O  0.74539123  0.69094726  0.52895061    -0.80600
O418        O  0.69476386  0.69508049  0.46690885    -0.79300
Zn419      Zn  0.68605720  0.77589082  0.48706938     1.55700
O420        O  0.74808403  0.73000312  0.56436640    -0.80700
Cd421      Cd  0.73803277  0.71673515  0.48484386     1.59700
Cd422      Cd  0.75844894  0.79167447  0.46254989     1.59600
O423        O  0.78121773  0.71686052  0.45395588    -0.80600
O424        O  0.73050599  0.76412465  0.49350211    -1.91200
Cd425      Cd  0.73908120  0.77341708  0.54004406     1.59900
O426        O  0.79271927  0.76579716  0.43686434    -0.80600
O427        O  0.69803670  0.78895900  0.56648488    -0.79300
C428        C  0.70079835  0.82314420  0.42959236     0.83300
C429        C  0.66696652  0.70775304  0.46575011     0.82900
O430        O  0.66177131  0.78783468  0.52851797    -0.78200
C431        C  0.74911099  0.70023982  0.55776808     0.83700
O432        O  0.68306146  0.81033444  0.45101329    -0.78300
C433        C  0.79932844  0.73642229  0.43803674     0.83900
C434        C  0.78951038  0.82878530  0.51798105     0.84200
O435        O  0.78532704  0.82487887  0.48828707    -0.80700
O436        O  0.01816498  0.78674292  0.32145794    -0.78200
C437        C  0.93232498  0.73207352  0.31515373     0.82800
O438        O  0.05734832  0.69884659  0.24967990    -0.79400
O439        O  0.94833609  0.71237975  0.21060803    -0.80800
O440        O  0.96572053  0.83042063  0.23097462    -0.80600
O441        O  0.02513741  0.82693432  0.28828388    -0.79300
Zn442      Zn  0.00318037  0.74783929  0.29661919     1.55700
O443        O  0.92698419  0.79414720  0.22815336    -0.80700
Cd444      Cd  0.00739309  0.80463154  0.24552129     1.59700
Cd445      Cd  0.02567954  0.72871894  0.22313902     1.59600
O446        O  0.04122724  0.80459661  0.20657855    -0.80600
O447        O  0.99619833  0.75796808  0.25217357    -1.91200
Cd448      Cd  0.94842091  0.75087376  0.24466342     1.59900
O449        O  0.05241147  0.75562990  0.18947566    -0.80600
O450        O  0.92165301  0.73664224  0.28702368    -0.79300
C451        C  0.05647854  0.69408959  0.27958588     0.83300
C452        C  0.02661759  0.81536003  0.31637820     0.82900
O453        O  0.96202785  0.73606850  0.32060620    -0.78200
C454        C  0.93675406  0.82283886  0.22457843     0.83700
O455        O  0.03702156  0.71057302  0.29676504    -0.78300
C456        C  0.05487373  0.78565480  0.18650063     0.83900
C457        C  0.96710155  0.69321835  0.19535741     0.84200
O458        O  0.99737091  0.69641202  0.19657382    -0.80700
O459        O  0.57560586  0.01644589  0.97791703    -0.78200
C460        C  0.56463048  0.96303804  0.06327163     0.82800
O461        O  0.49931415  0.92589370  0.94551973    -0.79400
O462        O  0.45202019  0.95598646  0.04819887    -0.80800
O463        O  0.48841307  0.06612650  0.02760505    -0.80600
O464        O  0.54473702  0.05739121  0.96748735    -0.79300
Zn465      Zn  0.54840170  0.97901392  0.99251490     1.55700
O466        O  0.48622455  0.03230118  0.06816623    -0.80700
Cd467      Cd  0.50027292  0.03735398  0.98635536     1.59700
Cd468      Cd  0.47429803  0.96082987  0.97182838     1.59600
O469        O  0.46029689  0.03514414  0.95323342    -0.80600
O470        O  0.50421671  0.99084516  0.99960857    -1.91200
Cd471      Cd  0.49506797  0.98611425  0.04726250     1.59900
O472        O  0.44375973  0.98618199  0.94102256    -0.80600
O473        O  0.53619352  0.96837718  0.07339583    -0.79300
C474        C  0.52944478  0.92204597  0.94476237     0.83300
C475        C  0.57259707  0.04471532  0.96787181     0.82900
O476        O  0.57093400  0.96591866  0.03375681    -0.78200
C477        C  0.48405052  0.06075506  0.05741214     0.83700
O478        O  0.54790236  0.94135362  0.95984101    -0.78300
C479        C  0.44054938  0.01609227  0.93892266     0.83900
C480        C  0.43384077  0.93944675  0.02938601     0.84200
O481        O  0.44063026  0.93650510  0.00005694    -0.80700
C482        C  0.24803208  0.78448516  0.21234871     0.80500
N483        N  0.26214322  0.75580299  0.20889459    -0.77800
C484        C  0.26004693  0.73392490  0.23237899     0.82900
N485        N  0.24478811  0.74144387  0.25989405    -0.77800
C486        C  0.23103329  0.77025390  0.26367100     0.83000
N487        N  0.23267494  0.79131912  0.23963151    -0.79500
N488        N  0.37869676  0.64717053  0.31870145    -0.36400
N489        N  0.35355723  0.59227964  0.29262069    -0.56900
N490        N  0.38057490  0.55066210  0.34347778    -0.36300
N491        N  0.40273900  0.60743293  0.37259662    -0.56900
C492        C  0.35824720  0.65920141  0.29709349     0.27200
C493        C  0.38042762  0.66816416  0.34255656     0.27200
C494        C  0.35494458  0.53347923  0.33320635     0.27200
C495        C  0.39079953  0.53938141  0.37204973     0.27200
C496        C  0.35186634  0.61081876  0.26675827     0.35900
C497        C  0.34902378  0.56254728  0.28281476     0.35900
C498        C  0.41379581  0.63662783  0.37962926     0.35900
C499        C  0.42098179  0.58689195  0.38918791     0.35900
C500        C  0.34764243  0.68865944  0.30696582    -0.21600
C501        C  0.36172988  0.69434171  0.33576285    -0.21600
C502        C  0.34912032  0.51010480  0.35561603    -0.21600
C503        C  0.37205913  0.51336472  0.37959599    -0.21600
C504        C  0.34622586  0.59295981  0.23994829    -0.22700
C505        C  0.34495986  0.56208673  0.25006179    -0.22700
C506        C  0.43878625  0.63477381  0.40089420    -0.22700
C507        C  0.44355372  0.60334507  0.40675061    -0.22700
C508        C  0.34858601  0.64357839  0.26917819    -0.18000
C509        C  0.40007797  0.66517767  0.36926916    -0.18000
C510        C  0.41540867  0.55388459  0.39136450    -0.18000
C511        C  0.33801347  0.53911406  0.30377102    -0.18000
H512        H  0.33111410  0.70421032  0.29502769     0.14900
H513        H  0.35845784  0.71528194  0.35018242     0.14900
H514        H  0.33051857  0.49239494  0.35478568     0.14900
H515        H  0.37369221  0.49916736  0.40084138     0.14900
H516        H  0.34159855  0.60143820  0.21620010     0.13200
H517        H  0.33859731  0.54188501  0.23562889     0.13200
H518        H  0.45199518  0.65411173  0.41140550     0.13200
H519        H  0.46104485  0.59389192  0.42296888     0.13200
H520        H  0.39169847  0.62626226  0.31704261     0.26400
H521        H  0.39102361  0.56937784  0.33126526     0.26400
C522        C  0.52578883  0.99611330  0.22111510     0.80500
N523        N  0.50236163  0.99281758  0.19917145    -0.77800
C524        C  0.47412735  0.00805435  0.20305305     0.82900
N525        N  0.46914243  0.02522123  0.22954172    -0.77800
C526        C  0.49182940  0.02774319  0.25204361     0.83000
N527        N  0.52022102  0.01337185  0.24774678    -0.79500
N528        N  0.59972563  0.89036763  0.32864265    -0.36400
N529        N  0.63466778  0.86490511  0.38555027    -0.56900
N530        N  0.69366003  0.87430419  0.35429999    -0.36300
N531        N  0.65754439  0.90142565  0.30063606    -0.56900
C532        C  0.57975624  0.89568795  0.35280317     0.27200
C533        C  0.59176928  0.91069249  0.30540550     0.27200
C534        C  0.70315666  0.86506056  0.38367689     0.27200
C535        C  0.71415366  0.89653670  0.34262687     0.27200
C536        C  0.60369318  0.85703802  0.38911479     0.35900
C537        C  0.65188950  0.84161697  0.39938470     0.35900
C538        C  0.63936521  0.90288474  0.27457060     0.35900
C539        C  0.68771680  0.89980555  0.29094120     0.35900
C540        C  0.55836476  0.91942592  0.34495342    -0.21600
C541        C  0.56595544  0.92892467  0.31466738    -0.21600
C542        C  0.73118158  0.88110944  0.39067833    -0.21600
C543        C  0.73770024  0.90142126  0.36514930    -0.21600
C544        C  0.60088751  0.82863718  0.40511732    -0.22700
C545        C  0.63136215  0.81849343  0.41108023    -0.22700
C546        C  0.65773261  0.90198500  0.24760502    -0.22700
C547        C  0.68862322  0.89969858  0.25789219    -0.22700
C548        C  0.57806012  0.87628349  0.37948229    -0.18000
C549        C  0.60781556  0.91248549  0.27629526    -0.18000
C550        C  0.71202263  0.90998546  0.31124721    -0.18000
C551        C  0.68556902  0.84325273  0.40351490    -0.18000
H552        H  0.53891236  0.92831674  0.35928349     0.14900
H553        H  0.55397740  0.94708811  0.30114649     0.14900
H554        H  0.74487558  0.87930947  0.41228172     0.14900
H555        H  0.75787238  0.91725055  0.36310773     0.14900
H556        H  0.57915972  0.81621942  0.41125016     0.13200
H557        H  0.63718206  0.79626491  0.42223936     0.13200
H558        H  0.64974300  0.90536102  0.22352743     0.13200
H559        H  0.70928664  0.90012775  0.24259542     0.13200
H560        H  0.61663719  0.87233130  0.32754524     0.26400
H561        H  0.67396116  0.86511752  0.34252447     0.26400
N562        N  0.31497367  0.93611929  0.13083534    -0.36400
N563        N  0.37031910  0.94284383  0.08767242    -0.56900
N564        N  0.35278742  0.89480074  0.04247314    -0.36300
N565        N  0.30074185  0.88369344  0.08738818    -0.56900
C566        C  0.33756074  0.94951761  0.14903702     0.27200
C567        C  0.29883642  0.91564575  0.14920451     0.27200
C568        C  0.38389991  0.89983765  0.03431548     0.27200
C569        C  0.34377014  0.86491836  0.03448334     0.27200
C570        C  0.36687141  0.96981583  0.10432951     0.35900
C571        C  0.38592253  0.95091203  0.06105570     0.35900
C572        C  0.27425715  0.88891606  0.10479823     0.35900
C573        C  0.29126982  0.86819748  0.06122465     0.35900
C574        C  0.33449688  0.93922481  0.18004665    -0.21600
C575        C  0.30984055  0.91748515  0.18014364    -0.21600
C576        C  0.39477592  0.87266221  0.01929217    -0.21600
C577        C  0.36953774  0.85068679  0.01940979    -0.21600
C578        C  0.38006563  0.99501515  0.08836040    -0.22700
C579        C  0.39111449  0.98301962  0.06021624    -0.22700
C580        C  0.24771729  0.87670694  0.08981547    -0.22700
C581        C  0.25836112  0.86408224  0.06179289    -0.22700
C582        C  0.36151556  0.96914230  0.13681780    -0.18000
C583        C  0.27626069  0.89415094  0.13736037    -0.18000
C584        C  0.31266079  0.85169593  0.04135073    -0.18000
C585        C  0.40098962  0.92881893  0.04127989    -0.18000
H586        H  0.34933391  0.94556890  0.20000845     0.14900
H587        H  0.30181830  0.90374509  0.20026641     0.14900
H588        H  0.41842558  0.86878926  0.00981610     0.14900
H589        H  0.37032436  0.82688690  0.00998774     0.14900
H590        H  0.38273057  0.01887160  0.09716111     0.13200
H591        H  0.40280334  0.99539576  0.04126514     0.13200
H592        H  0.22375910  0.87501543  0.09922404     0.13200
H593        H  0.24392035  0.85115867  0.04494066     0.13200
H594        H  0.31168610  0.93975314  0.10659296     0.26400
H595        H  0.33780573  0.91146387  0.05284973     0.26400
C596        C  0.23642612  0.97374296  0.49142262     0.80500
N597        N  0.24150640  0.99857612  0.47138925    -0.77800
C598        C  0.26911602  0.01523682  0.47320937     0.82900
N599        N  0.29162246  0.00679316  0.49423847    -0.77800
C600        C  0.28719991  0.98191631  0.51342699     0.83000
N601        N  0.25967953  0.96534651  0.51201231    -0.79500
C602        C  0.45110697  0.80240042  0.48329964     0.80500
N603        N  0.43804306  0.77801222  0.46701364    -0.77800
C604        C  0.44036052  0.77727241  0.43486843     0.82900
N605        N  0.45574392  0.80104679  0.41959572    -0.77800
C606        C  0.46841619  0.82557653  0.43587306     0.83000
N607        N  0.46602096  0.82589003  0.46764103    -0.79500
N608        N  0.40697086  0.89845421  0.61721385    -0.36400
N609        N  0.41881386  0.84918326  0.66125308    -0.56900
N610        N  0.37196557  0.87550225  0.70644142    -0.36300
N611        N  0.36277331  0.92838810  0.66079939    -0.56900
C612        C  0.42983855  0.88272046  0.60144643     0.27200
C613        C  0.40285957  0.92626428  0.60257559     0.27200
C614        C  0.38958363  0.85632575  0.72585028     0.27200
C615        C  0.35502734  0.89685820  0.72395967     0.27200
C616        C  0.42708644  0.83468646  0.63388639     0.35900
C617        C  0.41349373  0.82579236  0.68218405     0.35900
C618        C  0.35524139  0.94242802  0.63299723     0.35900
C619        C  0.33604388  0.92967643  0.67862255     0.35900
C620        C  0.44093938  0.90114188  0.57650804    -0.21600
C621        C  0.42410167  0.92899622  0.57755098    -0.21600
C622        C  0.38319291  0.86543563  0.75683889    -0.21600
C623        C  0.36131146  0.89063124  0.75566758    -0.21600
C624        C  0.42757799  0.80231913  0.63765707    -0.22700
C625        C  0.41862869  0.79684589  0.66824965    -0.22700
C626        C  0.32407527  0.95324603  0.63359024    -0.22700
C627        C  0.31191851  0.94509898  0.66230252    -0.22700
C628        C  0.43583896  0.85041004  0.60596424    -0.18000
C629        C  0.37541235  0.94451746  0.60626628    -0.18000
C630        C  0.33400590  0.92075188  0.71074034    -0.18000
C631        C  0.40937201  0.83029129  0.71480137    -0.18000
H632        H  0.45751344  0.89453562  0.55802873     0.14900
H633        H  0.42507140  0.94771949  0.56009573     0.14900
H634        H  0.39280042  0.85479028  0.77805849     0.14900
H635        H  0.35139297  0.90301492  0.77584633     0.14900
H636        H  0.43409484  0.78467577  0.62026131     0.13200
H637        H  0.41577363  0.77430061  0.67957799     0.13200
H638        H  0.31107416  0.96530106  0.61510097     0.13200
H639        H  0.28793461  0.95014042  0.67029927     0.13200
H640        H  0.39162024  0.88877019  0.63384018     0.26400
H641        H  0.37051582  0.87354519  0.68193479     0.26400
N642        N  0.38672777  0.10991398  0.36909524    -0.36400
N643        N  0.34298822  0.15674271  0.38874291    -0.56900
N644        N  0.37871749  0.20787732  0.35935775    -0.36300
N645        N  0.42684844  0.15988759  0.34271776    -0.56900
C646        C  0.36807469  0.09358107  0.38925999     0.27200
C647        C  0.41536462  0.09579888  0.36865194     0.27200
C648        C  0.36229025  0.22400950  0.38233098     0.27200
C649        C  0.40322603  0.22577145  0.34817285     0.27200
C650        C  0.32420037  0.13104019  0.38871958     0.35900
C651        C  0.32339342  0.18171937  0.38972230     0.35900
C652        C  0.43954508  0.13284643  0.33090864     0.35900
C653        C  0.43226478  0.18238868  0.32056888     0.35900
C654        C  0.38487780  0.06837971  0.40183702    -0.21600
C655        C  0.41504062  0.06980306  0.38871411    -0.21600
C656        C  0.37672081  0.25345136  0.38553849    -0.21600
C657        C  0.40201243  0.25479240  0.36360219    -0.21600
C658        C  0.29255843  0.13958117  0.39011726    -0.22700
C659        C  0.29182563  0.17190386  0.39002888    -0.22700
C660        C  0.45285467  0.13820488  0.30133637    -0.22700
C661        C  0.44856274  0.16944474  0.29492118    -0.22700
C662        C  0.33594649  0.10083671  0.39477813    -0.18000
C663        C  0.43929235  0.10330524  0.34658936    -0.18000
C664        C  0.42570993  0.21502832  0.32445787    -0.18000
C665        C  0.33428320  0.21172991  0.39853606    -0.18000
H666        H  0.37616328  0.05062268  0.41816353     0.14900
H667        H  0.43412524  0.05303817  0.39245918     0.14900
H668        H  0.36959298  0.27220246  0.40149390     0.14900
H669        H  0.41812328  0.27449395  0.36013713     0.14900
H670        H  0.27256436  0.12393709  0.39287545     0.13200
H671        H  0.27076847  0.18647527  0.39251416     0.13200
H672        H  0.46398984  0.12140457  0.28548999     0.13200
H673        H  0.45671081  0.18110247  0.27358681     0.13200
H674        H  0.37941810  0.12828473  0.35439996     0.26400
H675        H  0.37321864  0.18554301  0.35055341     0.26400
N676        N  0.14307387  0.84064713  0.41751422    -0.36400
N677        N  0.09162927  0.88268366  0.44004842    -0.56900
N678        N  0.04740155  0.86433656  0.39108459    -0.36300
N679        N  0.10021628  0.82554502  0.36529267    -0.56900
C680        C  0.15889753  0.86114175  0.43619218     0.27200
C681        C  0.16407615  0.83034363  0.39562456     0.27200
C682        C  0.03271212  0.89098149  0.40262054     0.27200
C683        C  0.03595435  0.85717763  0.36170204     0.27200
C684        C  0.11197731  0.88059168  0.46457876     0.35900
C685        C  0.06383276  0.89294570  0.45219213     0.35900
C686        C  0.12483557  0.80530798  0.36025806     0.35900
C687        C  0.07593232  0.81494137  0.34708320     0.35900
C688        C  0.19069848  0.86258534  0.42721122    -0.21600
C689        C  0.19401183  0.84288324  0.40152837    -0.21600
C690        C  0.01087689  0.90072442  0.37999716    -0.21600
C691        C  0.01259942  0.87931456  0.35457449    -0.21600
C692        C  0.09739103  0.88961868  0.49247031    -0.22700
C693        C  0.06652060  0.89669261  0.48479179    -0.22700
C694        C  0.11640006  0.78207195  0.33891134    -0.22700
C695        C  0.08578523  0.78804161  0.33050039    -0.22700
C696        C  0.14481741  0.87954022  0.46012858    -0.18000
C697        C  0.15641151  0.81056711  0.37009892    -0.18000
C698        C  0.04625712  0.83069398  0.34227072    -0.18000
C699        C  0.03903448  0.90531846  0.43335876    -0.18000
H700        H  0.20936010  0.87689791  0.43760060     0.14900
H701        H  0.21570328  0.83904558  0.38815711     0.14900
H702        H  0.99522084  0.92097212  0.38161991     0.14900
H703        H  0.99868507  0.88035527  0.33305256     0.14900
H704        H  0.10844389  0.89249437  0.51542721     0.13200
H705        H  0.04867070  0.90580151  0.50088764     0.13200
H706        H  0.13113185  0.76340056  0.32928935     0.13200
H707        H  0.07318190  0.77449654  0.31277956     0.13200
H708        H  0.11909018  0.83452288  0.41930846     0.26400
H709        H  0.06395156  0.85061707  0.40309266     0.26400
O710        O  0.72357045  0.96665873  0.30967726    -0.78200
C711        C  0.80424434  0.03601136  0.31831070     0.82800
O712        O  0.68821837  0.06535985  0.24531159    -0.79400
O713        O  0.79617215  0.06464958  0.21040416    -0.80800
O714        O  0.79560466  0.94786479  0.22014753    -0.80600
O715        O  0.74151046  0.93590822  0.27121149    -0.79300
Zn716      Zn  0.73843916  0.01149533  0.29205148     1.55700
O717        O  0.82849754  0.98817682  0.22895581    -0.80700
Cd718      Cd  0.75108655  0.96618509  0.23368193     1.59700
Cd719      Cd  0.72177057  0.03916294  0.21817774     1.59600
O720        O  0.71683246  0.96409899  0.19601517    -0.80600
O721        O  0.75223467  0.01147259  0.24734967    -1.91200
Cd722      Cd  0.79825150  0.02612945  0.24451399     1.59900
O723        O  0.69644908  0.01160909  0.18449561    -0.80600
O724        O  0.81656222  0.03983237  0.29063378    -0.79300
C725        C  0.68488847  0.06493132  0.27536992     0.83300
C726        C  0.72873258  0.93892781  0.29839138     0.82900
O727        O  0.77608862  0.02453532  0.32115229    -0.78200
C728        C  0.82376091  0.95928353  0.22069822     0.83700
O729        O  0.70232425  0.04620338  0.29229455    -0.78300
C730        C  0.69883423  0.98203874  0.17881081     0.83900
C731        C  0.77689847  0.08049184  0.19229579     0.84200
O732        O  0.74732398  0.07345786  0.19123690    -0.80700
O733        O  0.82017199  0.22107468  0.94687918    -0.78200
C734        C  0.81862855  0.30460461  0.00543230     0.82800
O735        O  0.75576062  0.18791146  0.04709957    -0.79400
O736        O  0.71428092  0.29049649  0.03329793    -0.80800
O737        O  0.72428675  0.27709210  0.91666841    -0.80600
O738        O  0.78145922  0.22291354  0.91112729    -0.79300
Zn739      Zn  0.79851163  0.23445492  0.98905645     1.55700
O740        O  0.72868049  0.31579111  0.95234892    -0.80700
Cd741      Cd  0.74085169  0.23537772  0.93897312     1.59700
Cd742      Cd  0.72626709  0.21418914  0.01494038     1.59600
O743        O  0.70692496  0.19679011  0.94025917    -0.80600
O744        O  0.75303137  0.24382912  0.98438810    -1.91200
Cd745      Cd  0.74641445  0.29119479  0.99309806     1.59900
O746        O  0.69869329  0.17977270  0.98981918    -0.80600
O747        O  0.79035867  0.31597455  0.00411530    -0.79300
C748        C  0.78611028  0.18533259  0.04698827     0.83300
C749        C  0.81082546  0.21863224  0.91815077     0.82900
O750        O  0.82294702  0.27509147  0.00024310    -0.78200
C751        C  0.72175525  0.30637977  0.92427579     0.83700
O752        O  0.80230584  0.20047061  0.02583461    -0.78300
C753        C  0.69472968  0.17654776  0.95992995     0.83900
C754        C  0.69817947  0.27110947  0.05105613     0.84200
O755        O  0.69717329  0.24144818  0.04528203    -0.80700
C756        C  0.30587972  0.26861868  0.80120045     0.80500
N757        N  0.28159723  0.28250797  0.81715505    -0.77800
C758        C  0.26754298  0.30872551  0.80545275     0.82900
N759        N  0.27799630  0.32117198  0.77780144    -0.77800
C760        C  0.30240407  0.30767316  0.76185754     0.83000
N761        N  0.31613559  0.28134162  0.77360936    -0.79500
C762        C  0.49676154  0.27435525  0.95726887     0.80500
N763        N  0.48291257  0.29985891  0.97107678    -0.77800
C764        C  0.46112507  0.29574889  0.99430974     0.82900
N765        N  0.45344501  0.26626746  0.00417951    -0.77800
C766        C  0.46759490  0.24071205  0.99111439     0.83000
N767        N  0.48894375  0.24494308  0.96737651    -0.79500
C768        C  0.45745444  0.49417358  0.73122263     0.80500
N769        N  0.44836538  0.50972049  0.75775445    -0.77800
C770        C  0.46119818  0.50241627  0.78616524     0.82900
N771        N  0.48299643  0.47908961  0.78805413    -0.77800
C772        C  0.49236959  0.46309936  0.76178522     0.83000
N773        N  0.47956385  0.47066812  0.73321392    -0.79500
C774        C  0.20462025  0.53054669  0.00735400     0.80500
N775        N  0.20639066  0.51049806  0.03232328    -0.77800
C776        C  0.23082131  0.51180463  0.05301058     0.82900
N777        N  0.25382567  0.53391531  0.04861550    -0.77800
C778        C  0.25271784  0.55433657  0.02393434     0.83000
N779        N  0.22826154  0.55206438  0.00295278    -0.79500
N780        N  0.39993775  0.60732853  0.93122643    -0.36400
N781        N  0.36657274  0.66215265  0.95067585    -0.56900
N782        N  0.37975849  0.69861496  0.89254767    -0.36300
N783        N  0.41120558  0.64253188  0.87036954    -0.56900
C784        C  0.38133750  0.59549778  0.95458928     0.27200
C785        C  0.40539520  0.58363859  0.91071705     0.27200
C786        C  0.35331006  0.71363726  0.90394948     0.27200
C787        C  0.38467645  0.70669205  0.86162270     0.27200
C788        C  0.37002449  0.64653573  0.97820535     0.35900
C789        C  0.35696155  0.69138774  0.95802996     0.35900
C790        C  0.42877298  0.61588104  0.86711025     0.35900
C791        C  0.42217472  0.66301130  0.84812429     0.35900
C792        C  0.37614407  0.56350991  0.94957397    -0.21600
C793        C  0.39177772  0.55588718  0.92191272    -0.21600
C794        C  0.34138982  0.73240862  0.87973442    -0.21600
C795        C  0.36152083  0.72858922  0.85337786    -0.21600
C796        C  0.36271575  0.66594449  0.00353492    -0.22700
C797        C  0.35471317  0.69465724  0.99076535    -0.22700
C798        C  0.45053684  0.61925706  0.84264001    -0.22700
C799        C  0.44649223  0.64889734  0.83071544    -0.22700
C800        C  0.36765880  0.61368228  0.97901224    -0.18000
C801        C  0.42222249  0.58678092  0.88216917    -0.18000
C802        C  0.40915912  0.69335266  0.84143993    -0.18000
C803        C  0.34113275  0.71045137  0.93593897    -0.18000
H804        H  0.36212565  0.54749138  0.96393776     0.14900
H805        H  0.39217333  0.53281319  0.91079025     0.14900
H806        H  0.32060508  0.74747631  0.88094614     0.14900
H807        H  0.35859923  0.73962438  0.83045219     0.14900
H808        H  0.36020888  0.65905894  0.02812415     0.13200
H809        H  0.34518946  0.71462718  0.00376621     0.13200
H810        H  0.46706538  0.60182734  0.83357789     0.13200
H811        H  0.45939695  0.65831266  0.81059996     0.13200
H812        H  0.40828020  0.63041780  0.92885988     0.26400
H813        H  0.39446519  0.68378981  0.90558715     0.26400
N814        N  0.60606183  0.33645467  0.83085214    -0.36400
N815        N  0.64592813  0.38739647  0.81172940    -0.56900
N816        N  0.69268252  0.36989927  0.86382995    -0.36300
N817        N  0.65088903  0.31542891  0.87836474    -0.56900
C818        C  0.59086413  0.34626368  0.80459195     0.27200
C819        C  0.59394826  0.30819260  0.83877325     0.27200
C820        C  0.70993606  0.38905033  0.84415036     0.27200
C821        C  0.71251792  0.35028054  0.88017311     0.27200
C822        C  0.61653835  0.39783550  0.80414086     0.35900
C823        C  0.66249592  0.41308242  0.82080946     0.35900
C824        C  0.62350542  0.30213908  0.88869511     0.35900
C825        C  0.66962945  0.31807818  0.90411890     0.35900
C826        C  0.56929187  0.32340910  0.79494956    -0.21600
C827        C  0.57127017  0.29914096  0.81670261    -0.21600
C828        C  0.74193512  0.38181444  0.84853660    -0.21600
C829        C  0.74353880  0.35757209  0.87126457    -0.21600
C830        C  0.61450646  0.43031695  0.80785574    -0.22700
C831        C  0.64366047  0.43998089  0.81883302    -0.22700
C832        C  0.62510775  0.29604338  0.92096207    -0.22700
C833        C  0.65451707  0.30580549  0.93064331    -0.22700
C834        C  0.59160344  0.37784571  0.79445887    -0.18000
C835        C  0.59704823  0.29554145  0.86926426    -0.18000
C836        C  0.70178943  0.32696824  0.90294332    -0.18000
C837        C  0.69583511  0.41278883  0.82375389    -0.18000
H838        H  0.55188485  0.32542909  0.77619806     0.14900
H839        H  0.55576060  0.27870437  0.81794524     0.14900
H840        H  0.76206932  0.39272246  0.83681129     0.14900
H841        H  0.76502863  0.34653009  0.88000322     0.14900
H842        H  0.59410895  0.44534096  0.80359249     0.13200
H843        H  0.65070663  0.46413868  0.82377138     0.13200
H844        H  0.60714097  0.28563181  0.93611273     0.13200
H845        H  0.66385571  0.30396922  0.95445711     0.13200
H846        H  0.62008850  0.35043258  0.84554212     0.26400
H847        H  0.66802767  0.37073415  0.86656558     0.26400
N848        N  0.36771796  0.40827637  0.62734065    -0.36400
N849        N  0.34495607  0.35614738  0.58694858    -0.56900
N850        N  0.36325181  0.39104629  0.53081264    -0.36300
N851        N  0.38959414  0.44040119  0.57424096    -0.56900
C852        C  0.36841572  0.38318441  0.64665230     0.27200
C853        C  0.38710211  0.43025920  0.63988230     0.27200
C854        C  0.35494671  0.36206875  0.51900739     0.27200
C855        C  0.38773111  0.40391029  0.51355958     0.27200
C856        C  0.33141882  0.35167340  0.61559945     0.35900
C857        C  0.32337211  0.34619819  0.56556514     0.35900
C858        C  0.38615998  0.46468607  0.59461974     0.35900
C859        C  0.38886127  0.45262953  0.54508847     0.35900
C860        C  0.38866372  0.38891284  0.67192754    -0.21600
C861        C  0.40066615  0.41895592  0.66759020    -0.21600
C862        C  0.37408920  0.35656526  0.49264215    -0.21600
C863        C  0.39498134  0.38255582  0.48953640    -0.21600
C864        C  0.30121630  0.33904161  0.61281531    -0.22700
C865        C  0.29566240  0.33641637  0.58097276    -0.22700
C866        C  0.38321440  0.49292712  0.57873348    -0.22700
C867        C  0.38450571  0.48530602  0.54706398    -0.22700
C868        C  0.34694136  0.35815259  0.64409901    -0.18000
C869        C  0.39053393  0.46067306  0.62706241    -0.18000
C870        C  0.40094173  0.43530519  0.51921810    -0.18000
C871        C  0.33085333  0.34160127  0.53317203    -0.18000
H872        H  0.39324155  0.37354000  0.69189172     0.14900
H873        H  0.41692104  0.43117056  0.68326186     0.14900
H874        H  0.37371581  0.33574500  0.47771662     0.14900
H875        H  0.41292569  0.38556153  0.47133825     0.14900
H876        H  0.28475871  0.33309115  0.63168073     0.13200
H877        H  0.27373962  0.32794873  0.57050472     0.13200
H878        H  0.38129502  0.51633937  0.58891432     0.13200
H879        H  0.38319225  0.50218980  0.52789264     0.13200
H880        H  0.35250228  0.41133547  0.60807459     0.26400
H881        H  0.35183568  0.40198121  0.54983558     0.26400
N882        N  0.34513154  0.38147764  0.09690113    -0.36400
N883        N  0.30974662  0.38804525  0.15116455    -0.56900
N884        N  0.36019528  0.36485184  0.19418619    -0.36300
N885        N  0.39927456  0.35986632  0.13874607    -0.56900
C886        C  0.32204560  0.40145181  0.08717851     0.27200
C887        C  0.37139142  0.38824275  0.08012626     0.27200
C888        C  0.34432036  0.38652333  0.21249377     0.27200
C889        C  0.38936267  0.35835298  0.20680116     0.27200
C890        C  0.28604900  0.38872389  0.13001118     0.35900
C891        C  0.29663795  0.38500780  0.17971824     0.35900
C892        C  0.40816727  0.35284884  0.10873038     0.35900
C893        C  0.41414869  0.33855276  0.15762847     0.35900
C894        C  0.33363899  0.42053559  0.06301185    -0.21600
C895        C  0.36497656  0.41184293  0.05830273    -0.21600
C896        C  0.36394113  0.39368010  0.23802175    -0.21600
C897        C  0.39182499  0.37533530  0.23490107    -0.21600
C898        C  0.25693209  0.38555834  0.14511682    -0.22700
C899        C  0.26371492  0.38275498  0.17688656    -0.22700
C900        C  0.42864105  0.32710966  0.10856591    -0.22700
C901        C  0.43241403  0.31806766  0.13946376    -0.22700
C902        C  0.29127486  0.40284804  0.10068789    -0.18000
C903        C  0.39926911  0.37032682  0.08156879    -0.18000
C904        C  0.41342524  0.33912422  0.19117591    -0.18000
C905        C  0.31249997  0.39828827  0.20544616    -0.18000
H906        H  0.32089636  0.43866759  0.05015949     0.14900
H907        H  0.38117758  0.42154204  0.04083401     0.14900
H908        H  0.35866840  0.40997477  0.25710090     0.14900
H909        H  0.41215737  0.37582028  0.25060292     0.14900
H910        H  0.23351832  0.38840842  0.13483544     0.13200
H911        H  0.24650691  0.38348953  0.19601165     0.13200
H912        H  0.43979535  0.31594322  0.08830896     0.13200
H913        H  0.44719938  0.29876461  0.14757344     0.13200
H914        H  0.34313969  0.36311594  0.11327301     0.26400
H915        H  0.35154424  0.35444448  0.17353306     0.26400
N916        N  0.38136358  0.13862971  0.89739254    -0.36400
N917        N  0.35602768  0.09726855  0.84682746    -0.56900
N918        N  0.36927321  0.04202846  0.88379285    -0.36300
N919        N  0.39899779  0.08533894  0.93044591    -0.56900
C920        C  0.38225945  0.15836782  0.87264639     0.27200
C921        C  0.39940693  0.15168047  0.92036014     0.27200
C922        C  0.35676578  0.02846161  0.85724601     0.27200
C923        C  0.39235717  0.02303237  0.89657227     0.27200
C924        C  0.35060797  0.12623475  0.83443825     0.35900
C925        C  0.33672909  0.07715829  0.83087590     0.35900
C926        C  0.40016802  0.10580935  0.95469777     0.35900
C927        C  0.40029594  0.05651248  0.94309842     0.35900
C928        C  0.40035164  0.18488014  0.88005432    -0.21600
C929        C  0.41136380  0.18057810  0.91037022    -0.21600
C930        C  0.37113514  0.99907686  0.85369659    -0.21600
C931        C  0.39404775  0.99603241  0.87785280    -0.21600
C932        C  0.32919623  0.12436654  0.80965647    -0.22700
C933        C  0.32008424  0.09352178  0.80765301    -0.22700
C934        C  0.40284905  0.09024669  0.98306882    -0.22700
C935        C  0.40246092  0.05860701  0.97582780    -0.22700
C936        C  0.36379801  0.15485674  0.84537632    -0.18000
C937        C  0.40437334  0.13800986  0.95021772    -0.18000
C938        C  0.41025155  0.03068961  0.92511346    -0.18000
C939        C  0.33490632  0.04399159  0.83559512    -0.18000
H940        H  0.40467984  0.20538125  0.86532188     0.14900
H941        H  0.42621558  0.19688379  0.92352355     0.14900
H942        H  0.36688971  0.98234603  0.83474864     0.14900
H943        H  0.40970760  0.97605363  0.88138793     0.14900
H944        H  0.32037800  0.14340950  0.79497854     0.13200
H945        H  0.30323202  0.08435525  0.79062425     0.13200
H946        H  0.40719373  0.10100461  0.00579653     0.13200
H947        H  0.40666118  0.03926628  0.99201162     0.13200
H948        H  0.36726529  0.11848279  0.89912944     0.26400
H949        H  0.36189763  0.06366737  0.89284620     0.26400
N950        N  0.13993721  0.41783554  0.88013829    -0.36400
N951        N  0.08444183  0.45009135  0.89509446    -0.56900
N952        N  0.04267078  0.40573212  0.86060296    -0.36300
N953        N  0.10010678  0.37106201  0.84615902    -0.56900
C954        C  0.15005448  0.43662696  0.90390348     0.27200
C955        C  0.15828683  0.39196691  0.88031490     0.27200
C956        C  0.02274150  0.41715175  0.88375670     0.27200
C957        C  0.03084720  0.37823563  0.84823460     0.27200
C958        C  0.10569198  0.47304105  0.90131878     0.35900
C959        C  0.05578389  0.46380021  0.89486964     0.35900
C960        C  0.13016207  0.36273682  0.83810350     0.35900
C961        C  0.08095302  0.35902315  0.82336206     0.35900
C962        C  0.17556367  0.42271826  0.91928945    -0.21600
C963        C  0.18087768  0.39424992  0.90417333    -0.21600
C964        C  0.99704348  0.39650032  0.88574340    -0.21600
C965        C  0.00178699  0.37250629  0.86302272    -0.21600
C966        C  0.09071053  0.50174899  0.90517704    -0.22700
C967        C  0.05892988  0.49611205  0.90037132    -0.22700
C968        C  0.13020780  0.34529241  0.81033839    -0.22700
C969        C  0.09913681  0.34298426  0.80093400    -0.22700
C970        C  0.13664934  0.46620083  0.91083726    -0.18000
C971        C  0.15738102  0.36891133  0.85661227    -0.18000
C972        C  0.04720766  0.35873053  0.82483636    -0.18000
C973        C  0.02841700  0.44608009  0.90173371    -0.18000
H974        H  0.18898809  0.43217023  0.93901822     0.14900
H975        H  0.19956026  0.37748454  0.90955287     0.14900
H976        H  0.97685948  0.39857446  0.90159535     0.14900
H977        H  0.98622029  0.35252479  0.85883122     0.14900
H978        H  0.10134132  0.52349717  0.91344714     0.13200
H979        H  0.03987671  0.51282441  0.90452987     0.13200
H980        H  0.15046305  0.33492213  0.79830039     0.13200
H981        H  0.09095117  0.33007570  0.78035136     0.13200
H982        H  0.12281213  0.42318945  0.86313153     0.26400
H983        H  0.06366190  0.41646152  0.85295545     0.26400
C984        C  0.73015282  0.77385117  0.28902715     0.80500
N985        N  0.75351961  0.75178435  0.28681030    -0.77800
C986        C  0.77709747  0.75456044  0.26506161     0.82900
N987        N  0.77688197  0.77930444  0.24470265    -0.77800
C988        C  0.75391324  0.80166477  0.24636730     0.83000
N989        N  0.73045564  0.79854571  0.26847737    -0.79500
N990        N  0.59478537  0.68131650  0.34651650    -0.36400
N991        N  0.58355903  0.61956689  0.37976732    -0.56900
N992        N  0.60578669  0.64534904  0.43817645    -0.36300
N993        N  0.63495719  0.72457747  0.40650488    -0.56900
C994        C  0.58888725  0.66271100  0.32131065     0.27200
C995        C  0.60285858  0.71028705  0.33534543     0.27200
C996        C  0.59863508  0.61607243  0.44906660     0.27200
C997        C  0.62670046  0.65996908  0.45786880     0.27200
C998        C  0.58037468  0.61021352  0.34932611     0.35900
C999        C  0.57854963  0.59377716  0.39827082     0.35900
C1000       C  0.61122014  0.73300149  0.38691341     0.35900
C1001       C  0.62079232  0.71093048  0.43160173     0.35900
C1002       C  0.59241283  0.68046477  0.29374039    -0.21600
C1003       C  0.60181953  0.71037082  0.30266434    -0.21600
C1004       C  0.61521839  0.61196315  0.47730872    -0.21600
C1005       C  0.63364128  0.63932384  0.48234729    -0.21600
C1006       C  0.57411051  0.57801352  0.34834232    -0.22700
C1007       C  0.57312942  0.56764346  0.37904338    -0.22700
C1008       C  0.58181893  0.72690683  0.40067483    -0.22700
C1009       C  0.58793328  0.71287087  0.42933095    -0.22700
C1010       C  0.58239490  0.62983538  0.32205045    -0.18000
C1011       C  0.61627761  0.73429973  0.35423435    -0.18000
C1012       C  0.63802231  0.69158747  0.45236681    -0.18000
C1013       C  0.57939098  0.59323930  0.43219741    -0.18000
H1014       H  0.59000056  0.67234376  0.26953788     0.14900
H1015       H  0.60823602  0.72961133  0.28699687     0.14900
H1016       H  0.61552627  0.59093214  0.49186714     0.14900
H1017       H  0.64964178  0.64362700  0.50194649     0.14900
H1018       H  0.57088540  0.56328266  0.32760282     0.13200
H1019       H  0.57039767  0.54316782  0.38596206     0.13200
H1020       H  0.55873009  0.72874874  0.38945741     0.13200
H1021       H  0.57049611  0.70252051  0.44517514     0.13200
H1022       H  0.59553801  0.67432259  0.36985939     0.26400
H1023       H  0.59669902  0.65544565  0.41806025     0.26400
C1024       C  0.70800780  0.50537264  0.00274643     0.80500
N1025       N  0.71978909  0.47626715  0.01010123    -0.77800
C1026       C  0.74230480  0.47309197  0.03309274     0.82900
N1027       N  0.75217149  0.49919227  0.04887203    -0.77800
C1028       C  0.74066038  0.52812165  0.04184046     0.83000
N1029       N  0.71896345  0.53128456  0.01847789    -0.79500
C1030       C  0.49123152  0.72903289  0.03914503     0.80500
N1031       N  0.49529044  0.70521948  0.01798629    -0.77800
C1032       C  0.52444796  0.69941146  0.00533581     0.82900
N1033       N  0.54953759  0.71783634  0.01392349    -0.77800
C1034       C  0.54546327  0.74139314  0.03531281     0.83000
N1035       N  0.51641054  0.74661096  0.04806072    -0.79500
C1036       C  0.56628097  0.50722881  0.18754717     0.80500
N1037       N  0.57631174  0.53143714  0.20613032    -0.77800
C1038       C  0.55819932  0.55743094  0.21039145     0.82900
N1039       N  0.52957881  0.55895073  0.19608114    -0.77800
C1040       C  0.51877006  0.53503115  0.17766112     0.83000
N1041       N  0.53713011  0.50890988  0.17342383    -0.79500
N1042       N  0.38565009  0.62543196  0.11914412    -0.36400
N1043       N  0.33947078  0.57601796  0.13237771    -0.56900
N1044       N  0.28832511  0.62345704  0.12653895    -0.36300
N1045       N  0.33578130  0.66933813  0.10761201    -0.56900
C1046       C  0.40308016  0.59922101  0.11378958     0.27200
C1047       C  0.40104759  0.64972341  0.10518454     0.27200
C1048       C  0.27205859  0.59625462  0.13239810     0.27200
C1049       C  0.27121025  0.64226651  0.10631854     0.27200
C1050       C  0.36695937  0.56044802  0.13863896     0.35900
C1051       C  0.31669593  0.56137279  0.14967888     0.35900
C1052       C  0.35972096  0.68966500  0.11278998     0.35900
C1053       C  0.30890706  0.68631497  0.10859938     0.35900
C1054       C  0.43008382  0.60686968  0.09643919    -0.21600
C1055       C  0.42867271  0.63885121  0.09071298    -0.21600
C1056       C  0.24332499  0.59782515  0.11623770    -0.21600
C1057       C  0.24313995  0.62636997  0.09922072    -0.21600
C1058       C  0.36144134  0.53502293  0.15843573    -0.22700
C1059       C  0.32986417  0.53593702  0.16597737    -0.22700
C1060       C  0.34833369  0.72002165  0.11715212    -0.22700
C1061       C  0.31583452  0.71793468  0.11448642    -0.22700
C1062       C  0.39744940  0.56993458  0.12836759    -0.18000
C1063       C  0.39126295  0.68156604  0.10688288    -0.18000
C1064       C  0.28034951  0.67402838  0.09682522    -0.18000
C1065       C  0.28409096  0.57009033  0.15079828    -0.18000
H1066       H  0.44912299  0.59119049  0.08924164     0.14900
H1067       H  0.44631113  0.65257303  0.07797371     0.14900
H1068       H  0.22504525  0.57976008  0.11565311     0.14900
H1069       H  0.22416125  0.63475530  0.08411197     0.14900
H1070       H  0.37865918  0.51838321  0.16764579     0.13200
H1071       H  0.31822215  0.51964500  0.18200489     0.13200
H1072       H  0.36209208  0.74146547  0.12029957     0.13200
H1073       H  0.29951080  0.73762411  0.11598608     0.13200
H1074       H  0.36573311  0.62719289  0.13376659     0.26400
H1075       H  0.30999912  0.62885325  0.13714142     0.26400
N1076       N  0.69519515  0.37945180  0.15352372    -0.36400
N1077       N  0.63357993  0.34466113  0.16611762    -0.56900
N1078       N  0.64922495  0.29162310  0.12736860    -0.36300
N1079       N  0.70763596  0.32836840  0.11161735    -0.56900
C1080       C  0.67495848  0.40264226  0.16187382     0.27200
C1081       C  0.71682037  0.39243620  0.13367245     0.27200
C1082       C  0.61798393  0.28539050  0.13417091     0.27200
C1083       C  0.65682586  0.28007055  0.09809014     0.27200
C1084       C  0.63538562  0.36841652  0.18739956     0.35900
C1085       C  0.61416725  0.32271104  0.17915185     0.35900
C1086       C  0.73651221  0.34221752  0.11399088     0.35900
C1087       C  0.71246798  0.29984031  0.09863004     0.35900
C1088       C  0.68461860  0.43112059  0.14881141    -0.21600
C1089       C  0.71110496  0.42470480  0.13089104    -0.21600
C1090       C  0.60558328  0.26818744  0.10898325    -0.21600
C1091       C  0.62984153  0.26523174  0.08613927    -0.21600
C1092       C  0.61703684  0.36209295  0.21370602    -0.22700
C1093       C  0.60454364  0.33258005  0.20913867    -0.22700
C1094       C  0.76006097  0.32249424  0.10259225    -0.22700
C1095       C  0.74489057  0.29531166  0.09322937    -0.22700
C1096       C  0.64749047  0.39823771  0.18018843    -0.18000
C1097       C  0.73940171  0.37501388  0.11601920    -0.18000
C1098       C  0.68790774  0.28305030  0.08333662    -0.18000
C1099       C  0.60141918  0.29659164  0.16225650    -0.18000
H1100       H  0.67315589  0.45393592  0.15100943     0.14900
H1101       H  0.72352654  0.44183664  0.11645524     0.14900
H1102       H  0.58136360  0.25970071  0.10671799     0.14900
H1103       H  0.62775881  0.25359095  0.06339181     0.14900
H1104       H  0.61257143  0.37762734  0.23360225     0.13200
H1105       H  0.58899844  0.32050306  0.22560013     0.13200
H1106       H  0.78493756  0.32824881  0.09889901     0.13200
H1107       H  0.75598458  0.27567379  0.08097220     0.13200
H1108       H  0.69335951  0.35580593  0.16017449     0.26400
H1109       H  0.66504953  0.30306051  0.14250349     0.26400
N1110       N  0.58435882  0.57384130  0.89035674    -0.36400
N1111       N  0.63227455  0.55768477  0.84571568    -0.56900
N1112       N  0.61116871  0.61205551  0.80444969    -0.36300
N1113       N  0.55871915  0.62405257  0.85012818    -0.56900
C1114       C  0.59421230  0.54595104  0.90210241     0.27200
C1115       C  0.55707471  0.58140524  0.90517552     0.27200
C1116       C  0.62963985  0.59434995  0.78470699     0.27200
C1117       C  0.59053260  0.62995689  0.78702610     0.27200
C1118       C  0.64427316  0.54421144  0.87221990     0.35900
C1119       C  0.65736199  0.56360813  0.82665905     0.35900
C1120       C  0.55110731  0.63312935  0.87994133     0.35900
C1121       C  0.56324995  0.65111608  0.83369913     0.35900
C1122       C  0.57216280  0.53493087  0.92403600    -0.21600
C1123       C  0.54862174  0.55763657  0.92613552    -0.21600
C1124       C  0.62097165  0.60134489  0.75379070    -0.21600
C1125       C  0.59639735  0.62369375  0.75521292    -0.21600
C1126       C  0.67706318  0.54129533  0.86976930    -0.22700
C1127       C  0.68528780  0.55312604  0.84069571    -0.22700
C1128       C  0.55070945  0.66580281  0.88235886    -0.22700
C1129       C  0.55880985  0.67710007  0.85318886    -0.22700
C1130       C  0.62562831  0.53486146  0.89851621    -0.18000
C1131       C  0.54501707  0.61220881  0.90520600    -0.18000
C1132       C  0.56819322  0.65221763  0.80061669    -0.18000
C1133       C  0.65471179  0.57350724  0.79495373    -0.18000
H1134       H  0.57431965  0.51417471  0.93886044     0.14900
H1135       H  0.52901625  0.55790430  0.94284120     0.14900
H1136       H  0.63134177  0.59154135  0.73244196     0.14900
H1137       H  0.58449910  0.63401062  0.73504059     0.14900
H1138       H  0.69351572  0.53184233  0.88698585     0.13200
H1139       H  0.70914122  0.55389944  0.83093040     0.13200
H1140       H  0.54587405  0.68009275  0.90310502     0.13200
H1141       H  0.56147701  0.70167171  0.84718127     0.13200
H1142       H  0.59785320  0.58942889  0.87678872     0.26400
H1143       H  0.61349516  0.61268377  0.82900093     0.26400
N1144       N  0.84153207  0.62688004  0.15822572    -0.36400
N1145       N  0.89787349  0.64797129  0.18806882    -0.56900
N1146       N  0.93941721  0.62626398  0.13667676    -0.36300
N1147       N  0.88154684  0.60733254  0.10395334    -0.56900
C1148       C  0.82998987  0.64651214  0.18073627     0.27200
C1149       C  0.82039311  0.62671902  0.13431886     0.27200
C1150       C  0.95768912  0.64971286  0.14984007     0.27200
C1151       C  0.95115005  0.61806244  0.10766582     0.27200
C1152       C  0.87803079  0.64730438  0.21305898     0.35900
C1153       C  0.92728755  0.65166267  0.19965213     0.35900
C1154       C  0.85247109  0.59565030  0.09632482     0.35900
C1155       C  0.90296870  0.58980731  0.08751887     0.35900
C1156       C  0.80085680  0.65863158  0.17112574    -0.21600
C1157       C  0.79462108  0.64573815  0.14179634    -0.21600
C1158       C  0.98225256  0.65620188  0.12869640    -0.21600
C1159       C  0.97859480  0.63579231  0.10259730    -0.21600
C1160       C  0.89484001  0.65033210  0.24106898    -0.22700
C1161       C  0.92631094  0.65285680  0.23257917    -0.22700
C1162       C  0.85537614  0.57098861  0.07493056    -0.22700
C1163       C  0.88715607  0.56729988  0.06930311    -0.22700
C1164       C  0.84554879  0.65339022  0.20952021    -0.18000
C1165       C  0.82308520  0.60791363  0.10710952    -0.18000
C1166       C  0.93631454  0.59545953  0.08638301    -0.18000
C1167       C  0.95196397  0.66375715  0.18079148    -0.18000
H1168       H  0.78568836  0.67503348  0.18378158     0.14900
H1169       H  0.77371239  0.65000315  0.12747407     0.14900
H1170       H  0.00111385  0.67337357  0.13188159     0.14900
H1171       H  0.99371131  0.63502139  0.08180909     0.14900
H1172       H  0.88515264  0.65347936  0.26465480     0.13200
H1173       H  0.94583896  0.65820872  0.24843897     0.13200
H1174       H  0.83657877  0.55702527  0.06433516     0.13200
H1175       H  0.89721329  0.55018391  0.05305624     0.13200
H1176       H  0.86210491  0.61318339  0.15953787     0.26400
H1177       H  0.91975804  0.61550673  0.14714575     0.26400
N1178       N  0.67811997  0.85968429  0.09721852    -0.36400
N1179       N  0.61742685  0.89452467  0.08484260    -0.56900
N1180       N  0.64140899  0.95309803  0.11167777    -0.36300
N1181       N  0.69819274  0.91626647  0.12876101    -0.56900
C1182       C  0.65845962  0.83530244  0.09139934     0.27200
C1183       C  0.70215142  0.84817535  0.11510145     0.27200
C1184       C  0.61091762  0.96209242  0.10535950     0.27200
C1185       C  0.65344856  0.97083387  0.13600339     0.27200
C1186       C  0.61071220  0.86564852  0.07247949     0.35900
C1187       C  0.59318159  0.91379315  0.07590322     0.35900
C1188       C  0.72522497  0.89934584  0.12709493     0.35900
C1189       C  0.70668829  0.94620486  0.13450027     0.35900
C1190       C  0.67132853  0.80754421  0.10344904    -0.21600
C1191       C  0.69880301  0.81582116  0.11889622    -0.21600
C1192       C  0.60361216  0.98723209  0.12530000    -0.21600
C1193       C  0.63000985  0.99218440  0.14510145    -0.21600
C1194       C  0.58179184  0.86646535  0.05673848    -0.22700
C1195       C  0.57076696  0.89666268  0.05896502    -0.22700
C1196       C  0.75144731  0.91840649  0.13202046    -0.22700
C1197       C  0.73974278  0.94848076  0.13588888    -0.22700
C1198       C  0.62857442  0.83753224  0.07676100    -0.18000
C1199       C  0.72481682  0.86674065  0.13103062    -0.18000
C1200       C  0.68537730  0.96759336  0.14865092    -0.18000
C1201       C  0.58979285  0.94647511  0.08322498    -0.18000
H1202       H  0.66112427  0.78403121  0.10272412     0.14900
H1203       H  0.71393046  0.80014007  0.13241554     0.14900
H1204       H  0.58112739  0.99966872  0.12655501     0.14900
H1205       H  0.63177314  0.00971376  0.16371259     0.14900
H1206       H  0.56955074  0.84718330  0.04504456     0.13200
H1207       H  0.54822741  0.90485042  0.04969090     0.13200
H1208       H  0.77596997  0.91102894  0.13477111     0.13200
H1209       H  0.75354236  0.96909293  0.14244845     0.13200
H1210       H  0.67438303  0.88295204  0.09027732     0.26400
H1211       H  0.65368182  0.93573196  0.09927375     0.26400
O1212       O  0.70506747  0.47319279  0.66940278    -0.78200
C1213       C  0.76113272  0.56389698  0.67752243     0.82800
O1214       O  0.79787488  0.43818727  0.74343700    -0.79400
O1215       O  0.78531014  0.54498256  0.78269966    -0.80800
O1216       O  0.66987711  0.52735096  0.76703195    -0.80600
O1217       O  0.66902178  0.47704886  0.70779335    -0.79300
Zn1218     Zn  0.74759447  0.49030647  0.69302930     1.55700
O1219       O  0.70526471  0.56650372  0.76880286    -0.80700
Cd1220     Cd  0.69487510  0.48883500  0.74847286     1.59700
Cd1221     Cd  0.76917680  0.46973593  0.76998952     1.59600
O1222       O  0.69496837  0.45192614  0.78232824    -0.80600
O1223       O  0.74058609  0.49824143  0.73937449    -1.91200
Cd1224     Cd  0.74663336  0.54486391  0.74920272     1.59900
O1225       O  0.74266744  0.44051358  0.80178456    -0.80600
O1226       O  0.75673719  0.57151985  0.70672168    -0.79300
C1227       C  0.79995576  0.43514863  0.71341781     0.83300
C1228       C  0.67603673  0.47053672  0.67904078     0.82900
O1229       O  0.75969744  0.53441002  0.66930289    -0.78200
C1230       C  0.67708159  0.55591298  0.77365208     0.83700
O1231       O  0.78361821  0.45349418  0.69465710    -0.78300
C1232       C  0.71257680  0.43620989  0.80170212     0.83900
C1233       C  0.80447665  0.52673442  0.79833624     0.84200
O1234       O  0.80136320  0.49673861  0.79751759    -0.80700
O1235       O  0.06634364  0.03059225  0.48485699    -0.78200
C1236       C  0.05403046  0.97240184  0.56758496     0.82800
O1237       O  0.99288548  0.93838322  0.44822788    -0.79400
O1238       O  0.94183508  0.96466345  0.55133809    -0.80800
O1239       O  0.97932712  0.07642933  0.53545763    -0.80600
O1240       O  0.03276943  0.06965539  0.47393034    -0.79300
Zn1241     Zn  0.04003394  0.99123046  0.49766674     1.55700
O1242       O  0.97504009  0.03998480  0.57341798    -0.80700
Cd1243     Cd  0.98950384  0.04893264  0.49314072     1.59700
Cd1244     Cd  0.96561920  0.97251715  0.47500618     1.59600
O1245       O  0.94897041  0.04881577  0.46096635    -0.80600
O1246       O  0.99478419  0.00181848  0.50395546    -1.91200
Cd1247     Cd  0.98425776  0.99519829  0.55075984     1.59900
O1248       O  0.93573398  0.99992147  0.44481903    -0.80600
O1249       O  0.02495940  0.97711033  0.57606629    -0.79300
C1250       C  0.02321633  0.93473757  0.44793697     0.83300
C1251       C  0.06129914  0.05864664  0.47460178     0.82900
O1252       O  0.06245285  0.97668782  0.53879500    -0.78200
C1253       C  0.97441240  0.06913639  0.56467312     0.83700
O1254       O  0.04121653  0.95377713  0.46400957    -0.78300
C1255       C  0.93057730  0.02974581  0.44515378     0.83900
C1256       C  0.92338897  0.94927007  0.53196704     0.84200
O1257       O  0.93028762  0.94787713  0.50241873    -0.80700
C1258       C  0.46159627  0.01962483  0.76045291     0.80500
N1259       N  0.48625712  0.02399517  0.78042082    -0.77800
C1260       C  0.50471981  0.99928775  0.78927704     0.82900
N1261       N  0.49895869  0.97025346  0.77688766    -0.77800
C1262       C  0.47446628  0.96554186  0.75649047     0.83000
N1263       N  0.45585738  0.99040973  0.74864618    -0.79500
C1264       C  0.73834081  0.05731080  0.56695317     0.80500
N1265       N  0.71851908  0.03464313  0.57833664    -0.77800
C1266       C  0.69500637  0.02282576  0.55974249     0.82900
N1267       N  0.69187925  0.03350071  0.52970349    -0.77800
C1268       C  0.71193483  0.05570375  0.51814279     0.83000
N1269       N  0.73502904  0.06749950  0.53682996    -0.79500
C1270       C  0.50017391  0.29670454  0.49925919     0.80500
N1271       N  0.47922342  0.27316486  0.50494877    -0.77800
C1272       C  0.48562933  0.24275356  0.49772902     0.82900
N1273       N  0.51338871  0.23587955  0.48292364    -0.77800
C1274       C  0.53413792  0.25936304  0.47527539     0.83000
N1275       N  0.52776641  0.28962865  0.48398714    -0.79500
N1276       N  0.65532764  0.16094224  0.38533566    -0.36400
N1277       N  0.61315329  0.18875398  0.33927704    -0.56900
N1278       N  0.62364360  0.13213435  0.29682004    -0.36300
N1279       N  0.67021155  0.10873373  0.34448935    -0.56900
C1280       C  0.65156569  0.19006285  0.39758153     0.27200
C1281       C  0.67925697  0.14704107  0.40097786     0.27200
C1282       C  0.60895359  0.15380949  0.27783760     0.27200
C1283       C  0.64310806  0.11294744  0.27927492     0.27200
C1284       C  0.60330625  0.20007978  0.36758473     0.35900
C1285       C  0.58645878  0.18324588  0.32247723     0.35900
C1286       C  0.67546310  0.09630957  0.37336505     0.35900
C1287       C  0.66262027  0.08427848  0.32559920     0.35900
C1288       C  0.67426231  0.19537146  0.42080274    -0.21600
C1289       C  0.69169589  0.16779864  0.42320399    -0.21600
C1290       C  0.61870970  0.14782809  0.24692200    -0.21600
C1291       C  0.64027284  0.12237551  0.24783880    -0.21600
C1292       C  0.57039212  0.20185680  0.36883069    -0.22700
C1293       C  0.55965585  0.19058756  0.34037814    -0.22700
C1294       C  0.67175170  0.06376137  0.37286281    -0.22700
C1295       C  0.66329111  0.05610763  0.34243829    -0.22700
C1296       C  0.62400853  0.20805953  0.39251089    -0.18000
C1297       C  0.68458440  0.11441588  0.39964034    -0.18000
C1298       C  0.66178723  0.08717543  0.29251947    -0.18000
C1299       C  0.58698169  0.17765842  0.28957356    -0.18000
H1300       H  0.67626235  0.21584634  0.43608408     0.14900
H1301       H  0.70994166  0.16285722  0.44057610     0.14900
H1302       H  0.61145940  0.16049845  0.22590496     0.14900
H1303       H  0.65214908  0.11206181  0.22756140     0.14900
H1304       H  0.55567062  0.20958614  0.38844628     0.13200
H1305       H  0.53494300  0.18865912  0.33331206     0.13200
H1306       H  0.67492438  0.04735372  0.39226251     0.13200
H1307       H  0.65909678  0.03249685  0.33338167     0.13200
H1308       H  0.63946152  0.14935691  0.37040090     0.26400
H1309       H  0.61983640  0.13015641  0.32114164     0.26400
N1310       N  0.40539878  0.11790970  0.61317242    -0.36400
N1311       N  0.35345993  0.09053857  0.65138818    -0.56900
N1312       N  0.30390822  0.11478807  0.61052892    -0.36300
N1313       N  0.35628519  0.14528970  0.57504424    -0.56900
C1314       C  0.41927201  0.11419536  0.64153286     0.27200
C1315       C  0.42145773  0.14063723  0.59786632     0.27200
C1316       C  0.28716053  0.10382777  0.63633187     0.27200
C1317       C  0.28879960  0.14013930  0.59695534     0.27200
C1318       C  0.38058414  0.07539504  0.65890793     0.35900
C1319       C  0.33003067  0.06896835  0.65438237     0.35900
C1320       C  0.38217082  0.14744325  0.55602336     0.35900
C1321       C  0.33078398  0.15053359  0.55644679     0.35900
C1322       C  0.44496962  0.13459203  0.64443076    -0.21600
C1323       C  0.44663260  0.15124897  0.61630669    -0.21600
C1324       C  0.25989640  0.12230880  0.63875471    -0.21600
C1325       C  0.26097708  0.14502023  0.61426283    -0.21600
C1326       C  0.37482838  0.04417516  0.66656130    -0.22700
C1327       C  0.34275775  0.03974589  0.66265197    -0.22700
C1328       C  0.37335262  0.15370980  0.52522806    -0.22700
C1329       C  0.34092724  0.15573714  0.52538613    -0.22700
C1330       C  0.40949936  0.09115086  0.66309451    -0.18000
C1331       C  0.41325029  0.15099997  0.56757508    -0.18000
C1332       C  0.30002828  0.15705570  0.56871406    -0.18000
C1333       C  0.29770671  0.07780026  0.65674467    -0.18000
H1334       H  0.46095824  0.13684127  0.66438778     0.14900
H1335       H  0.46398461  0.16924222  0.61030168     0.14900
H1336       H  0.24140379  0.12011753  0.65651765     0.14900
H1337       H  0.24324840  0.16301032  0.60978454     0.14900
H1338       H  0.39192858  0.02667488  0.67429198     0.13200
H1339       H  0.33005168  0.01786546  0.66694448     0.13200
H1340       H  0.38878727  0.15815737  0.50512910     0.13200
H1341       H  0.32714168  0.16145422  0.50468794     0.13200
H1342       H  0.38651261  0.10467573  0.60408821     0.26400
H1343       H  0.32482551  0.10462978  0.60198264     0.26400
C1344       C  0.72365880  0.22598073  0.75418700     0.80500
N1345       N  0.75308440  0.23112812  0.74186269    -0.77800
C1346       C  0.75739004  0.25291673  0.71873035     0.82900
N1347       N  0.73210845  0.26908119  0.70760462    -0.77800
C1348       C  0.70248129  0.26381262  0.71914341     0.83000
N1349       N  0.69832516  0.24219541  0.74254429    -0.79500
N1350       N  0.56090558  0.36651989  0.64608264    -0.36400
N1351       N  0.54887484  0.41940930  0.60486413    -0.56900
N1352       N  0.60422248  0.45645284  0.62309966    -0.36300
N1353       N  0.61974119  0.40257489  0.66285559    -0.56900
C1354       C  0.54096896  0.35401040  0.62436571     0.27200
C1355       C  0.58048978  0.34319075  0.65515793     0.27200
C1356       C  0.59636816  0.47103966  0.59517182     0.27200
C1357       C  0.63398654  0.46524146  0.63260576     0.27200
C1358       C  0.52068411  0.40448672  0.60744747     0.35900
C1359       C  0.54257265  0.44807436  0.59307232     0.35900
C1360       C  0.62058210  0.37691651  0.68214758     0.35900
C1361       C  0.64131658  0.42349322  0.67456207     0.35900
C1362       C  0.54677916  0.32193868  0.62085012    -0.21600
C1363       C  0.57175798  0.31497548  0.64069615    -0.21600
C1364       C  0.62181942  0.49047182  0.58702931    -0.21600
C1365       C  0.64509349  0.48733205  0.61081761    -0.21600
C1366       C  0.49621801  0.42346751  0.59708546    -0.22700
C1367       C  0.51008172  0.45139721  0.58829552    -0.22700
C1368       C  0.64282998  0.38124731  0.70583213    -0.22700
C1369       C  0.65597064  0.41037400  0.70110682    -0.22700
C1370       C  0.51941598  0.37182991  0.60642783    -0.18000
C1371       C  0.60651608  0.34727371  0.67540871    -0.18000
C1372       C  0.65028046  0.45304107  0.66043758    -0.18000
C1373       C  0.56608363  0.46687429  0.57877826    -0.18000
H1374       H  0.53491664  0.30555422  0.60505965     0.14900
H1375       H  0.58299040  0.29208884  0.64322661     0.14900
H1376       H  0.62333304  0.50570129  0.56649816     0.14900
H1377       H  0.66790158  0.49928082  0.61144280     0.14900
H1378       H  0.47176622  0.41643870  0.59291735     0.13200
H1379       H  0.49828722  0.47067048  0.57626992     0.13200
H1380       H  0.64989184  0.36446600  0.72385060     0.13200
H1381       H  0.67533594  0.41982128  0.71508195     0.13200
H1382       H  0.56181352  0.38995187  0.65375196     0.26400
H1383       H  0.58947186  0.44156866  0.63603311     0.26400
N1384       N  0.57375317  0.89651817  0.62623080    -0.36400
N1385       N  0.55158475  0.83903971  0.65090449    -0.56900
N1386       N  0.59916141  0.79982295  0.61758756    -0.36300
N1387       N  0.62371668  0.85905690  0.59374433    -0.56900
C1388       C  0.55571884  0.90659213  0.65072438     0.27200
C1389       C  0.59665354  0.91819103  0.62177218     0.27200
C1390       C  0.59082757  0.78094346  0.64265207     0.27200
C1391       C  0.62778533  0.79062361  0.60531576     0.27200
C1392       C  0.52638130  0.85769201  0.65685785     0.35900
C1393       C  0.54086989  0.80924343  0.65247936     0.35900
C1394       C  0.62742471  0.88842285  0.58158595     0.35900
C1395       C  0.63833015  0.83906093  0.57331307     0.35900
C1396       C  0.56678183  0.93549801  0.66160220    -0.21600
C1397       C  0.59280749  0.94295771  0.64307861    -0.21600
C1398       C  0.61472315  0.75852036  0.64610838    -0.21600
C1399       C  0.63759889  0.76421326  0.62228936    -0.21600
C1400       C  0.49954579  0.84001122  0.66271403    -0.22700
C1401       C  0.50821136  0.80911538  0.65854900    -0.22700
C1402       C  0.64439280  0.88727578  0.55350398    -0.22700
C1403       C  0.65109705  0.85608845  0.54806481    -0.22700
C1404       C  0.52939025  0.88991761  0.66259453    -0.18000
C1405       C  0.61962841  0.91649422  0.59774923    -0.18000
C1406       C  0.64414952  0.80656185  0.57945451    -0.18000
C1407       C  0.56155633  0.78463675  0.66078866    -0.18000
H1408       H  0.55722479  0.94955854  0.68084280     0.14900
H1409       H  0.60726250  0.96407869  0.64510526     0.14900
H1410       H  0.61550903  0.73986183  0.66360778     0.14900
H1411       H  0.65938301  0.75103685  0.61861900     0.14900
H1412       H  0.47718736  0.84860415  0.67166493     0.13200
H1413       H  0.49344618  0.78876870  0.66387629     0.13200
H1414       H  0.65203406  0.90696172  0.53896616     0.13200
H1415       H  0.66524197  0.84742830  0.52845233     0.13200
H1416       H  0.57000447  0.87650374  0.61228289     0.26400
H1417       H  0.58541958  0.81815842  0.60850680     0.26400
N1418       N  0.86635812  0.15142270  0.64225677    -0.36400
N1419       N  0.90780663  0.10192192  0.61426342    -0.56900
N1420       N  0.96064796  0.14505404  0.61502502    -0.36300
N1421       N  0.91662973  0.19134647  0.64704868    -0.56900
C1422       C  0.85056614  0.12476284  0.64892865     0.27200
C1423       C  0.85435684  0.17435527  0.66100194     0.27200
C1424       C  0.97495258  0.11783826  0.60509677     0.27200
C1425       C  0.98029327  0.16133860  0.63513943     0.27200
C1426       C  0.87803094  0.09008241  0.61052892     0.35900
C1427       C  0.92580663  0.08869847  0.59106046     0.35900
C1428       C  0.89402032  0.21357624  0.64795552     0.35900
C1429       C  0.94388800  0.20559111  0.63999498     0.35900
C1430       C  0.82780985  0.13054354  0.67213904    -0.21600
C1431       C  0.83026677  0.16215225  0.67990941    -0.21600
C1432       C  0.00537732  0.11734122  0.61799961    -0.21600
C1433       C  0.00839900  0.14420126  0.63758027    -0.21600
C1434       C  0.87727777  0.06895267  0.58548120    -0.22700
C1435       C  0.90744981  0.06799353  0.57332037    -0.22700
C1436       C  0.90676505  0.24308341  0.64175752    -0.22700
C1437       C  0.93889095  0.23792109  0.63674658    -0.22700
C1438       C  0.85119392  0.09844453  0.62898756    -0.18000
C1439       C  0.86369398  0.20625387  0.65893751    -0.18000
C1440       C  0.97198568  0.19136255  0.64974102    -0.18000
C1441       C  0.95904010  0.09333590  0.58690008    -0.18000
H1442       H  0.81015165  0.11409903  0.68104526     0.14900
H1443       H  0.81543920  0.17483827  0.69664249     0.14900
H1444       H  0.02288757  0.09880458  0.61508772     0.14900
H1445       H  0.02907383  0.15051500  0.65148236     0.14900
H1446       H  0.85705943  0.05573956  0.57664746     0.13200
H1447       H  0.91498146  0.05372656  0.55344535     0.13200
H1448       H  0.89474494  0.26570250  0.64268460     0.13200
H1449       H  0.95706464  0.25578785  0.63372630     0.13200
H1450       H  0.88201335  0.15437862  0.62328344     0.26400
H1451       H  0.93793343  0.15212103  0.60813308     0.26400
N1452       N  0.66584581  0.07588567  0.84673546    -0.36400
N1453       N  0.62382951  0.05372330  0.89830220    -0.56900
N1454       N  0.64524304  0.09888052  0.94492924    -0.36300
N1455       N  0.68506310  0.12311544  0.89328686    -0.56900
C1456       C  0.64155349  0.06194590  0.83142021     0.27200
C1457       C  0.67560152  0.10021735  0.82866680     0.27200
C1458       C  0.61665659  0.08940079  0.95747705     0.27200
C1459       C  0.65309495  0.12842123  0.95563356     0.27200
C1460       C  0.62508633  0.03042145  0.87648916     0.35900
C1461       C  0.61310061  0.04052455  0.92533039     0.35900
C1462       C  0.70711767  0.12471136  0.86998018     0.35900
C1463       C  0.69904998  0.13504982  0.91935986     0.35900
C1464       C  0.63655102  0.07661127  0.80248988    -0.21600
C1465       C  0.65838465  0.10099273  0.80067601    -0.21600
C1466       C  0.60636559  0.11336107  0.97760087    -0.21600
C1467       C  0.62918283  0.13780499  0.97644088    -0.21600
C1468       C  0.61545764  0.00208096  0.88941394    -0.22700
C1469       C  0.60818792  0.00819089  0.92040741    -0.22700
C1470       C  0.73521968  0.13749055  0.88094917    -0.22700
C1471       C  0.73050703  0.14311168  0.91257936    -0.22700
C1472       C  0.62365374  0.03709719  0.84420494    -0.18000
C1473       C  0.69909277  0.12175538  0.83806205    -0.18000
C1474       C  0.68152716  0.14573448  0.94599741    -0.18000
C1475       C  0.60152299  0.05904501  0.95098219    -0.18000
H1476       H  0.61863069  0.07085160  0.78500748     0.14900
H1477       H  0.66065977  0.11785340  0.78152323     0.14900
H1478       H  0.58465597  0.11341233  0.99147747     0.14900
H1479       H  0.62800136  0.16002312  0.98912941     0.14900
H1480       H  0.61171143  0.97992712  0.87707017     0.13200
H1481       H  0.59906512  0.99043446  0.93633747     0.13200
H1482       H  0.75618222  0.14344982  0.86720229     0.13200
H1483       H  0.74740610  0.15433236  0.92828874     0.13200
H1484       H  0.67499628  0.06938631  0.86876601     0.26400
H1485       H  0.65959041  0.08526561  0.93009365     0.26400
C1486       C  0.98028204  0.72449013  0.53511428     0.80500
N1487       N  0.00318017  0.74510442  0.54374694    -0.77800
C1488       C  0.03223642  0.74435774  0.52987690     0.82900
N1489       N  0.03853444  0.72254702  0.50715829    -0.77800
C1490       C  0.01537740  0.70184961  0.49817877     0.83000
N1491       N  0.98644193  0.70278958  0.51236783    -0.79500
N1492       N  0.09127679  0.58505129  0.38175231    -0.36400
N1493       N  0.13970775  0.57157517  0.33747249    -0.56900
N1494       N  0.11985383  0.62743391  0.29763611    -0.36300
N1495       N  0.06716422  0.63758584  0.34337523    -0.56900
C1496       C  0.10178569  0.55720872  0.39301037     0.27200
C1497       C  0.06342069  0.59131596  0.39598151     0.27200
C1498       C  0.13676490  0.60855322  0.27728522     0.27200
C1499       C  0.09903459  0.64618037  0.28118946     0.27200
C1500       C  0.15193434  0.55810472  0.36363544     0.35900
C1501       C  0.16470250  0.57919521  0.31914823     0.35900
C1502       C  0.05791386  0.64453959  0.37328424     0.35900
C1503       C  0.07191239  0.66570541  0.32885625     0.35900
C1504       C  0.07979943  0.54487723  0.41419299    -0.21600
C1505       C  0.05524149  0.56657903  0.41601167    -0.21600
C1506       C  0.12691556  0.61586858  0.24678537    -0.21600
C1507       C  0.10345094  0.63954406  0.24918849    -0.21600
C1508       C  0.18489321  0.55656563  0.36168257    -0.22700
C1509       C  0.19298369  0.56976304  0.33323768    -0.22700
C1510       C  0.05670147  0.67703029  0.37768848    -0.22700
C1511       C  0.06605198  0.69040846  0.34971420    -0.22700
C1512       C  0.13324695  0.54687061  0.38887123    -0.18000
C1513       C  0.05065200  0.62186326  0.39677166    -0.18000
C1514       C  0.07724981  0.66873993  0.29594722    -0.18000
C1515       C  0.16116384  0.58621603  0.28712929    -0.18000
H1516       H  0.08235710  0.52376457  0.42843456     0.14900
H1517       H  0.03522936  0.56568883  0.43220762     0.14900
H1518       H  0.13576644  0.60544772  0.22506519     0.14900
H1519       H  0.09095741  0.65020348  0.22954825     0.14900
H1520       H  0.20140252  0.54672765  0.37865317     0.13200
H1521       H  0.21678877  0.57121447  0.32342439     0.13200
H1522       H  0.05043284  0.68985139  0.39901138     0.13200
H1523       H  0.06835267  0.71552347  0.34530291     0.13200
H1524       H  0.10456080  0.60139175  0.36889610     0.26400
H1525       H  0.12295094  0.62795885  0.32212616     0.26400
C1526       C  0.26512487  0.72238823  0.71730598     0.80500
N1527       N  0.24871498  0.74973999  0.71869353    -0.77800
C1528       C  0.22591489  0.75453574  0.74070726     0.82900
N1529       N  0.21906838  0.73138761  0.76165342    -0.77800
C1530       C  0.23562162  0.70378062  0.76100739     0.83000
N1531       N  0.25838829  0.69920241  0.73858013    -0.79500
C1532       C  0.24383616  0.49611664  0.52686159     0.80500
N1533       N  0.27170056  0.51201016  0.52418904    -0.77800
C1534       C  0.27820854  0.52907099  0.49753104     0.82900
N1535       N  0.25606293  0.53040959  0.47411820    -0.77800
C1536       C  0.22854761  0.51378793  0.47658785     0.83000
N1537       N  0.22258764  0.49695309  0.50291168    -0.79500
N1538       N  0.36124467  0.67030186  0.56336480    -0.36400
N1539       N  0.41359298  0.63042966  0.54509359    -0.56900
N1540       N  0.45526286  0.64294248  0.60002477    -0.36300
N1541       N  0.40105939  0.67849246  0.62272517    -0.56900
C1542       C  0.34656273  0.64916673  0.54454144     0.27200
C1543       C  0.34023673  0.67863226  0.58590270     0.27200
C1544       C  0.46724768  0.61515091  0.58852159     0.27200
C1545       C  0.46245884  0.64656874  0.63151575     0.27200
C1546       C  0.39535071  0.63235212  0.51891371     0.35900
C1547       C  0.44240002  0.62060207  0.53546606     0.35900
C1548       C  0.38018580  0.70250560  0.61952716     0.35900
C1549       C  0.42635718  0.69097283  0.63787232     0.35900
C1550       C  0.31502565  0.64561426  0.55393286    -0.21600
C1551       C  0.31092314  0.66466673  0.58017645    -0.21600
C1552       C  0.48352139  0.60082581  0.61334526    -0.21600
C1553       C  0.48079235  0.62065695  0.64018021    -0.21600
C1554       C  0.41246128  0.62397041  0.49229253    -0.22700
C1555       C  0.44274640  0.61773860  0.50253089    -0.22700
C1556       C  0.39198985  0.72998479  0.63255881    -0.22700
C1557       C  0.42199402  0.72271551  0.64306404    -0.22700
C1558       C  0.36226695  0.63146349  0.52107195    -0.18000
C1559       C  0.34836810  0.69738065  0.61191957    -0.18000
C1560       C  0.45114943  0.67294567  0.65087252    -0.18000
C1561       C  0.46287796  0.60401920  0.55604437    -0.18000
H1562       H  0.29729508  0.63004394  0.54374702     0.14900
H1563       H  0.28944836  0.66675867  0.59426692     0.14900
H1564       H  0.49584879  0.57838498  0.61239563     0.14900
H1565       H  0.49036411  0.61596642  0.66347934     0.14900
H1566       H  0.40337145  0.62008487  0.46863005     0.13200
H1567       H  0.46166554  0.60807255  0.48797950     0.13200
H1568       H  0.37994631  0.75250606  0.63443199     0.13200
H1569       H  0.43936761  0.73816468  0.65368482     0.13200
H1570       H  0.38490200  0.67780239  0.56195769     0.26400
H1571       H  0.44273557  0.65932428  0.58650964     0.26400
C1572       C  0.02159958  0.52645634  0.74869787     0.80500
N1573       N  0.02408553  0.49914709  0.73235621    -0.77800
C1574       C  0.00601186  0.49423285  0.70623654     0.82900
N1575       N  0.98598164  0.51715192  0.69609448    -0.77800
C1576       C  0.98359937  0.54460273  0.71247043     0.83000
N1577       N  0.00137794  0.54903537  0.73863926    -0.79500
N1578       N  0.12856670  0.40099053  0.61508015    -0.36400
N1579       N  0.17502662  0.35252243  0.59657923    -0.56900
N1580       N  0.12803707  0.30406162  0.60842176    -0.36300
N1581       N  0.08576170  0.35337591  0.62980856    -0.56900
C1582       C  0.15672044  0.41436894  0.62229186     0.27200
C1583       C  0.10604983  0.41590694  0.63229002     0.27200
C1584       C  0.15351400  0.28688463  0.59870097     0.27200
C1585       C  0.11214908  0.28855963  0.63214249     0.27200
C1586       C  0.18904874  0.38016034  0.58825997     0.35900
C1587       C  0.18426306  0.33086318  0.57480004     0.35900
C1588       C  0.06460446  0.37665505  0.62609164     0.35900
C1589       C  0.06913123  0.32684477  0.63390138     0.35900
C1590       C  0.15217370  0.43827093  0.64442434    -0.21600
C1591       C  0.11989557  0.43940638  0.65061935    -0.21600
C1592       C  0.15342439  0.25869510  0.61553724    -0.21600
C1593       C  0.12792920  0.26012708  0.63721835    -0.21600
C1594       C  0.20735780  0.37604516  0.56119163    -0.22700
C1595       C  0.20442984  0.34486734  0.55273061    -0.22700
C1596       C  0.03378521  0.36485908  0.62750252    -0.22700
C1597       C  0.03671033  0.33293798  0.63261480    -0.22700
C1598       C  0.18475812  0.40898628  0.60481921    -0.18000
C1599       C  0.07350708  0.40790795  0.63144747    -0.18000
C1600       C  0.08336295  0.30032103  0.64720584    -0.18000
C1601       C  0.17672243  0.29817188  0.57612606    -0.18000
H1602       H  0.17011079  0.45400446  0.65398638     0.14900
H1603       H  0.10805315  0.45554393  0.66669902     0.14900
H1604       H  0.17066164  0.23979142  0.61350982     0.14900
H1605       H  0.12148404  0.24199710  0.65412399     0.14900
H1606       H  0.22078375  0.39366227  0.54824603     0.13200
H1607       H  0.21593453  0.33383680  0.53257961     0.13200
H1608       H  0.01182714  0.37823097  0.62826363     0.13200
H1609       H  0.01749757  0.31654877  0.63747942     0.13200
H1610       H  0.12448092  0.38397050  0.59762878     0.26400
H1611       H  0.12199840  0.32561763  0.59828174     0.26400
N1612       N  0.86450260  0.67115680  0.64992025    -0.36400
N1613       N  0.82793833  0.61488224  0.66272213    -0.56900
N1614       N  0.77897361  0.63477251  0.61784046    -0.36300
N1615       N  0.81785207  0.69443269  0.60710945    -0.56900
C1616       C  0.88223300  0.65838538  0.67290006     0.27200
C1617       C  0.87565280  0.70048036  0.64472127     0.27200
C1618       C  0.76249606  0.61339135  0.63627890     0.27200
C1619       C  0.75845119  0.65437325  0.60198339     0.27200
C1620       C  0.85748776  0.60530646  0.67074458     0.35900
C1621       C  0.81029940  0.58839197  0.65960331     0.35900
C1622       C  0.84354504  0.71157103  0.59788976     0.35900
C1623       C  0.79962946  0.69183658  0.58105011     0.35900
C1624       C  0.90453557  0.68027365  0.68340185    -0.21600
C1625       C  0.90025097  0.70708932  0.66549382    -0.21600
C1626       C  0.73029274  0.61933227  0.63146807    -0.21600
C1627       C  0.72777023  0.64470255  0.60989058    -0.21600
C1628       C  0.85842335  0.57257542  0.67325106    -0.22700
C1629       C  0.82845262  0.56190326  0.66644621    -0.22700
C1630       C  0.84086162  0.72104191  0.56671431    -0.22700
C1631       C  0.81340645  0.70823159  0.55597251    -0.22700
C1632       C  0.88272550  0.62586210  0.67889724    -0.18000
C1633       C  0.87125049  0.71583268  0.61585537    -0.18000
C1634       C  0.76831769  0.67991270  0.58062131    -0.18000
C1635       C  0.77708612  0.58848717  0.65569208    -0.18000
H1636       H  0.92376200  0.67643285  0.69995816     0.14900
H1637       H  0.91569211  0.72761866  0.66518263     0.14900
H1638       H  0.71062098  0.60654950  0.64204738     0.14900
H1639       H  0.70583031  0.65494430  0.60128769     0.14900
H1640       H  0.87814854  0.55791295  0.68064704     0.13200
H1641       H  0.82081385  0.53746911  0.66709394     0.13200
H1642       H  0.85744483  0.73480993  0.55272214     0.13200
H1643       H  0.80406851  0.71116197  0.53233025     0.13200
H1644       H  0.84965705  0.65850575  0.63492298     0.26400
H1645       H  0.80359638  0.63562398  0.61516305     0.26400
N1646       N  0.12858680  0.85533151  0.63398980    -0.36400
N1647       N  0.14650120  0.90497973  0.67355206    -0.56900
N1648       N  0.11290742  0.95204957  0.63498552    -0.36300
N1649       N  0.09816593  0.90031050  0.59131902    -0.56900
C1650       C  0.14918481  0.84108109  0.65370809     0.27200
C1651       C  0.12912830  0.83934786  0.60654439     0.27200
C1652       C  0.13593911  0.97024828  0.64907301     0.27200
C1653       C  0.10019465  0.96746989  0.60973535     0.27200
C1654       C  0.14659160  0.88117817  0.69458241     0.35900
C1655       C  0.14548940  0.93163338  0.69048337     0.35900
C1656       C  0.08871661  0.87182431  0.57994467     0.35900
C1657       C  0.07458012  0.92089509  0.58424083     0.35900
C1658       C  0.16321763  0.81543908  0.63871858    -0.21600
C1659       C  0.15038738  0.81431176  0.60864094    -0.21600
C1660       C  0.13764075  0.99848231  0.63233457    -0.21600
C1661       C  0.11471749  0.99699767  0.60805180    -0.21600
C1662       C  0.14584332  0.89256262  0.72529135    -0.22700
C1663       C  0.14506975  0.92491695  0.72249957    -0.22700
C1664       C  0.05937307  0.87434260  0.56529810    -0.22700
C1665       C  0.05035080  0.90532031  0.56811355    -0.22700
C1666       C  0.15334837  0.85031656  0.68536472    -0.18000
C1667       C  0.10620023  0.84346600  0.58288788    -0.18000
C1668       C  0.07622502  0.95405862  0.58898842    -0.18000
C1669       C  0.15348378  0.96073996  0.67714709    -0.18000
H1670       H  0.18012893  0.79890911  0.64865332     0.14900
H1671       H  0.15488806  0.79633193  0.59091418     0.14900
H1672       H  0.15322101  0.01826611  0.63730830     0.14900
H1673       H  0.11004409  0.01517132  0.59065005     0.14900
H1674       H  0.14756472  0.87913195  0.74703789     0.13200
H1675       H  0.14641372  0.94206148  0.74130068     0.13200
H1676       H  0.04573450  0.85579172  0.55395372     0.13200
H1677       H  0.02853018  0.91526685  0.55887639     0.13200
H1678       H  0.11262757  0.87318032  0.64009314     0.26400
H1679       H  0.10520258  0.92989507  0.64254661     0.26400
N1680       N  0.14565189  0.59122289  0.86751612    -0.36400
N1681       N  0.17365921  0.63572993  0.91120028    -0.56900
N1682       N  0.11592132  0.63167850  0.95176885    -0.36300
N1683       N  0.09077322  0.58453433  0.90664152    -0.56900
C1684       C  0.17487081  0.59384343  0.85486098     0.27200
C1685       C  0.13073743  0.56755080  0.85232859     0.27200
C1686       C  0.13690843  0.64737906  0.97079044     0.27200
C1687       C  0.09449384  0.61529725  0.96994094     0.27200
C1688       C  0.19168166  0.64099538  0.88505419     0.35900
C1689       C  0.17610029  0.66230303  0.92879664     0.35900
C1690       C  0.07892439  0.57429986  0.87885463     0.35900
C1691       C  0.06556702  0.59144141  0.92496020     0.35900
C1692       C  0.17910384  0.57101809  0.83164368    -0.21600
C1693       C  0.15104582  0.55414131  0.83013471    -0.21600
C1694       C  0.12809963  0.64166214  0.00201145    -0.21600
C1695       C  0.10172955  0.62118818  0.00148188    -0.21600
C1696       C  0.20628259  0.67033538  0.88662802    -0.22700
C1697       C  0.19639989  0.68380117  0.91414939    -0.22700
C1698       C  0.04592423  0.57439207  0.87949075    -0.22700
C1699       C  0.03741348  0.58493539  0.90898409    -0.22700
C1700       C  0.19373184  0.62084719  0.85847581    -0.18000
C1701       C  0.09778837  0.56271362  0.85392783    -0.18000
C1702       C  0.06824491  0.59679074  0.95755337    -0.18000
C1703       C  0.16324683  0.66644986  0.95945513    -0.18000
H1704       H  0.19928932  0.56855554  0.81582948     0.14900
H1705       H  0.14533964  0.53593024  0.81301045     0.14900
H1706       H  0.13973703  0.65078884  0.02296777     0.14900
H1707       H  0.08911330  0.61211337  0.02193687     0.14900
H1708       H  0.22205096  0.68121503  0.86947613     0.13200
H1709       H  0.20363026  0.70683545  0.92261960     0.13200
H1710       H  0.02975226  0.56653646  0.86115192     0.13200
H1711       H  0.01332977  0.58667515  0.91794139     0.13200
H1712       H  0.13489061  0.60784304  0.88206521     0.26400
H1713       H  0.11583324  0.63297540  0.92715587     0.26400
C1714       C  0.78115709  0.24470094  0.28346558     0.80500
N1715       N  0.76203607  0.27012578  0.28747296    -0.77800
C1716       C  0.75667225  0.29064290  0.26345287     0.82900
N1717       N  0.77053177  0.28533488  0.23487260    -0.77800
C1718       C  0.78959701  0.25972107  0.23060256     0.83000
N1719       N  0.79516692  0.23980108  0.25496076    -0.79500
N1720       N  0.64949374  0.42228333  0.33419030    -0.36400
N1721       N  0.60653614  0.37554098  0.30602860    -0.56900
N1722       N  0.55807831  0.39009641  0.35458558    -0.36300
N1723       N  0.60129035  0.44066410  0.37881274    -0.56900
C1724       C  0.66633082  0.41312183  0.30867963     0.27200
C1725       C  0.66238341  0.44956110  0.34475246     0.27200
C1726       C  0.54044436  0.37287581  0.33351232     0.27200
C1727       C  0.53824901  0.40719616  0.37371652     0.27200
C1728       C  0.63529877  0.36488390  0.29611264     0.35900
C1729       C  0.58623718  0.35083211  0.30303465     0.35900
C1730       C  0.62732029  0.45479771  0.39136728     0.35900
C1731       C  0.58060022  0.43664293  0.40297047     0.35900
C1732       C  0.69029352  0.43485680  0.30254830    -0.21600
C1733       C  0.68755012  0.45823647  0.32523763    -0.21600
C1734       C  0.50851023  0.37856004  0.33994752    -0.21600
C1735       C  0.50713251  0.40018843  0.36508029    -0.21600
C1736       C  0.63310285  0.33353624  0.28666521    -0.22700
C1737       C  0.60203883  0.32477711  0.29071253    -0.22700
C1738       C  0.62304220  0.45997105  0.42350875    -0.22700
C1739       C  0.59345574  0.44859531  0.43084274    -0.22700
C1740       C  0.66351774  0.38314053  0.29470189    -0.18000
C1741       C  0.65462438  0.46381556  0.37395546    -0.18000
C1742       C  0.54845190  0.42771815  0.39919496    -0.18000
C1743       C  0.55326247  0.35165721  0.30978274    -0.18000
H1744       H  0.70853560  0.43327428  0.28444880     0.14900
H1745       H  0.70332839  0.47829675  0.32813605     0.14900
H1746       H  0.48831322  0.36823284  0.32784221     0.14900
H1747       H  0.48567994  0.40943810  0.37590009     0.14900
H1748       H  0.65180683  0.31846459  0.27753548     0.13200
H1749       H  0.59231063  0.30163447  0.28549644     0.13200
H1750       H  0.63946712  0.47073809  0.44005030     0.13200
H1751       H  0.58240962  0.44955753  0.45401782     0.13200
H1752       H  0.63258926  0.40849755  0.34567581     0.26400
H1753       H  0.58271944  0.38945121  0.35665697     0.26400
C1754       C  0.72955222  0.51904267  0.46935570     0.80500
N1755       N  0.74370218  0.54752562  0.47431663    -0.77800
C1756       C  0.75915525  0.55327752  0.50209866     0.82900
N1757       N  0.76044892  0.53030103  0.52431754    -0.77800
C1758       C  0.74651532  0.50185554  0.51958579     0.83000
N1759       N  0.73144310  0.49625477  0.49184425    -0.79500
C1760       C  0.93753483  0.46508862  0.25341349     0.80500
N1761       N  0.96550184  0.45010347  0.25742280    -0.77800
C1762       C  0.98595641  0.45832643  0.28052887     0.82900
N1763       N  0.97821695  0.48272968  0.30000261    -0.77800
C1764       C  0.95031454  0.49866191  0.29599338     0.83000
N1765       N  0.92990117  0.48975090  0.27250035    -0.79500
C1766       C  0.98134001  0.27904912  0.50832787     0.80500
N1767       N  0.00754649  0.27892235  0.48964020    -0.77800
C1768       C  0.01718639  0.25158431  0.47550380     0.82900
N1769       N  0.99992187  0.22461841  0.47973140    -0.77800
C1770       C  0.97395286  0.22450937  0.49906406     0.83000
N1771       N  0.96523376  0.25181919  0.51322528    -0.79500
N1772       N  0.10144580  0.32470833  0.33607167    -0.36400
N1773       N  0.15471626  0.30432455  0.37288306    -0.56900
N1774       N  0.19820563  0.35440379  0.35072444    -0.36300
N1775       N  0.14339831  0.37769807  0.31629594    -0.56900
C1776       C  0.08714937  0.30722552  0.35866956     0.27200
C1777       C  0.08070742  0.34728744  0.32751516     0.27200
C1778       C  0.21246074  0.34487389  0.37825169     0.27200
C1779       C  0.20768053  0.38444817  0.34300839     0.27200
C1780       C  0.13512743  0.27905972  0.37376464     0.35900
C1781       C  0.18360043  0.29387345  0.38140544     0.35900
C1782       C  0.11869529  0.37760400  0.29593193     0.35900
C1783       C  0.16778663  0.39149064  0.30071795     0.35900
C1784       C  0.05633016  0.31801354  0.36366354    -0.21600
C1785       C  0.05220305  0.34347431  0.34373616    -0.21600
C1786       C  0.23241329  0.36930400  0.38790765    -0.21600
C1787       C  0.22962299  0.39396382  0.36570873    -0.21600
C1788       C  0.15140851  0.25222735  0.38275588    -0.22700
C1789       C  0.18251929  0.26134697  0.38657786    -0.22700
C1790       C  0.12702512  0.39122369  0.26741663    -0.22700
C1791       C  0.15856307  0.39898110  0.26995754    -0.22700
C1792       C  0.10215996  0.28261625  0.37523062    -0.18000
C1793       C  0.08757121  0.37088413  0.30530311    -0.18000
C1794       C  0.19569695  0.40234816  0.31606327    -0.18000
C1795       C  0.20694216  0.31448959  0.39364359    -0.18000
H1796       H  0.03892492  0.30895248  0.38030753     0.14900
H1797       H  0.03098098  0.35785704  0.34186576     0.14900
H1798       H  0.24726484  0.36953160  0.40881797     0.14900
H1799       H  0.24171757  0.41655582  0.36673624     0.14900
H1800       H  0.14150093  0.22911514  0.38779864     0.13200
H1801       H  0.20152114  0.24642877  0.39529331     0.13200
H1802       H  0.11179467  0.39550319  0.24722328     0.13200
H1803       H  0.17265040  0.41016813  0.25161827     0.13200
H1804       H  0.12431284  0.32165600  0.32693093     0.26400
H1805       H  0.18271791  0.34062658  0.33728653     0.26400
N1806       N  0.86510617  0.38476566  0.59303343    -0.36400
N1807       N  0.91275114  0.36354504  0.64010579    -0.56900
N1808       N  0.86741261  0.37386527  0.69152154    -0.36300
N1809       N  0.82352666  0.39857507  0.64338782    -0.56900
C1810       C  0.89250626  0.38755046  0.57675573     0.27200
C1811       C  0.84340040  0.40348867  0.57877630     0.27200
C1812       C  0.89386591  0.36504787  0.70804288     0.27200
C1813       C  0.84913672  0.39422663  0.70919312     0.27200
C1814       C  0.92571218  0.35455328  0.61201685     0.35900
C1815       C  0.92505779  0.34383287  0.66226948     0.35900
C1816       C  0.80270845  0.39728408  0.61937477     0.35900
C1817       C  0.80634193  0.39754358  0.67004051     0.35900
C1818       C  0.88823460  0.40771416  0.55123360    -0.21600
C1819       C  0.85710010  0.41816194  0.55271734    -0.21600
C1820       C  0.89181387  0.37897712  0.73779730    -0.21600
C1821       C  0.86421842  0.39786364  0.73825660    -0.21600
C1822       C  0.94631499  0.32936404  0.61648967    -0.22700
C1823       C  0.94607192  0.32280896  0.64809775    -0.22700
C1824       C  0.77177324  0.39529249  0.63064719    -0.22700
C1825       C  0.77408118  0.39537538  0.66308099    -0.22700
C1826       C  0.91954089  0.36887221  0.58228352    -0.18000
C1827       C  0.81151951  0.40650493  0.58889797    -0.18000
C1828       C  0.81909100  0.40796773  0.69871081    -0.18000
C1829       C  0.91949551  0.34560691  0.69545327    -0.18000
H1830       H  0.90563097  0.41379960  0.53326764     0.14900
H1831       H  0.84577337  0.43420501  0.53627712     0.14900
H1832       H  0.90895648  0.37677529  0.75676711     0.14900
H1833       H  0.85603151  0.41207702  0.75797444     0.14900
H1834       H  0.96000683  0.31658480  0.59894578     0.13200
H1835       H  0.96006883  0.30459814  0.65938978     0.13200
H1836       H  0.75000052  0.39631600  0.61699330     0.13200
H1837       H  0.75437079  0.39647953  0.67964351     0.13200
H1838       H  0.86104156  0.36923773  0.61175747     0.26400
H1839       H  0.86205659  0.36565980  0.66893477     0.26400
N1840       N  0.86607841  0.35722144  0.12873404    -0.36400
N1841       N  0.85506806  0.32040729  0.07521044    -0.56900
N1842       N  0.87735151  0.37140809  0.03285634    -0.36300
N1843       N  0.88384300  0.41187341  0.08900374    -0.56900
C1844       C  0.84985403  0.33238415  0.14033373     0.27200
C1845       C  0.85945675  0.38215292  0.14735210     0.27200
C1846       C  0.85576460  0.35557693  0.01450526     0.27200
C1847       C  0.88299211  0.40080603  0.02088861     0.27200
C1848       C  0.85979134  0.29717494  0.09630793     0.35900
C1849       C  0.85886639  0.30772576  0.04649127     0.35900
C1850       C  0.89437230  0.41755766  0.11871493     0.35900
C1851       C  0.90758912  0.42105138  0.06941876     0.35900
C1852       C  0.83223999  0.34159667  0.16664075    -0.21600
C1853       C  0.83830683  0.37335398  0.17103707    -0.21600
C1854       C  0.84755765  0.37550685  0.98967277    -0.21600
C1855       C  0.86517459  0.40369486  0.99331388    -0.21600
C1856       C  0.86670111  0.26902832  0.08123803    -0.22700
C1857       C  0.86637790  0.27581659  0.04929908    -0.22700
C1858       C  0.92480286  0.42990200  0.11835836    -0.22700
C1859       C  0.93364669  0.43116915  0.08716306    -0.22700
C1860       C  0.85293205  0.30153602  0.12827687    -0.18000
C1861       C  0.87690991  0.41036876  0.14612973    -0.18000
C1862       C  0.90374869  0.42366586  0.03609208    -0.18000
C1863       C  0.84619663  0.32302349  0.01996592    -0.18000
H1864       H  0.81719229  0.32695254  0.18144010     0.14900
H1865       H  0.82950454  0.38793176  0.19023918     0.14900
H1866       H  0.83132069  0.37009437  0.97054170     0.14900
H1867       H  0.86415622  0.42414480  0.97796825     0.14900
H1868       H  0.87047672  0.24614109  0.09204220     0.13200
H1869       H  0.87018704  0.25905773  0.03030699     0.13200
H1870       H  0.93960410  0.43578220  0.13849223     0.13200
H1871       H  0.95698481  0.43821062  0.07882913     0.13200
H1872       H  0.88322553  0.35641385  0.11081403     0.26400
H1873       H  0.88878999  0.36237611  0.05277449     0.26400
N1874       N  0.89514328  0.62450803  0.42417236    -0.36400
N1875       N  0.91118985  0.66253999  0.36671823    -0.56900
N1876       N  0.87646552  0.71711148  0.38741673    -0.36300
N1877       N  0.85810715  0.67770919  0.44169896    -0.56900
C1878       C  0.89891719  0.60214433  0.40181482     0.27200
C1879       C  0.87469802  0.61279858  0.44597056     0.27200
C1880       C  0.88536247  0.72653926  0.35774061     0.27200
C1881       C  0.84787004  0.73041211  0.39584909     0.27200
C1882       C  0.92817133  0.63549822  0.36376025     0.35900
C1883       C  0.92578450  0.68422734  0.34805201     0.35900
C1884       C  0.86352537  0.66337216  0.46953353     0.35900
C1885       C  0.84784225  0.70680843  0.44857095     0.35900
C1886       C  0.88164899  0.57533587  0.40992060    -0.21600
C1887       C  0.86620548  0.58210673  0.43794254    -0.21600
C1888       C  0.86242808  0.74779559  0.34730309    -0.21600
C1889       C  0.83859752  0.74968365  0.37086625    -0.21600
C1890       C  0.95353708  0.63969240  0.34336886    -0.22700
C1891       C  0.95212938  0.67032120  0.33334114    -0.22700
C1892       C  0.85708432  0.68352398  0.49444066    -0.22700
C1893       C  0.84701265  0.71140042  0.48105686    -0.22700
C1894       C  0.91774243  0.60577749  0.37452172    -0.18000
C1895       C  0.86222661  0.63059890  0.47135010    -0.18000
C1896       C  0.83192620  0.72507123  0.42616584    -0.18000
C1897       C  0.91333408  0.71481786  0.34087061    -0.18000
H1898       H  0.87957090  0.55356693  0.39657120     0.14900
H1899       H  0.84975691  0.56663126  0.45020320     0.14900
H1900       H  0.86216718  0.75973800  0.32465628     0.14900
H1901       H  0.81720586  0.76388448  0.36977860     0.14900
H1902       H  0.97036739  0.62200129  0.33536361     0.13200
H1903       H  0.96788758  0.68008556  0.31558610     0.13200
H1904       H  0.85707253  0.67743159  0.51929455     0.13200
H1905       H  0.83813285  0.73201230  0.49343258     0.13200
H1906       H  0.90579883  0.64680917  0.42433488     0.26400
H1907       H  0.89013395  0.70241074  0.40166987     0.26400
N1908       N  0.82953076  0.14264857  0.43231291    -0.36400
N1909       N  0.81278705  0.10180207  0.37694797    -0.56900
N1910       N  0.85465488  0.05056904  0.39444695    -0.36300
N1911       N  0.87351577  0.09213755  0.44680311    -0.56900
C1912       C  0.81994512  0.16382252  0.41063368     0.27200
C1913       C  0.85159593  0.15725604  0.45040345     0.27200
C1914       C  0.84684506  0.04179299  0.36427710     0.27200
C1915       C  0.88346426  0.03791478  0.40278986     0.27200
C1916       C  0.79177362  0.12602609  0.37612377     0.35900
C1917       C  0.80111484  0.07916307  0.35746432     0.35900
C1918       C  0.87099400  0.10896307  0.47381219     0.35900
C1919       C  0.88462946  0.06361059  0.45518886     0.35900
C1920       C  0.83456433  0.19279191  0.41603555    -0.21600
C1921       C  0.85477483  0.18859091  0.44126082    -0.21600
C1922       C  0.87085238  0.02188330  0.35341512    -0.21600
C1923       C  0.89397827  0.01976350  0.37739866    -0.21600
C1924       C  0.76673828  0.11904453  0.35615829    -0.22700
C1925       C  0.77244643  0.08950500  0.34439253    -0.22700
C1926       C  0.88047192  0.09137057  0.49952010    -0.22700
C1927       C  0.88857899  0.06218726  0.48784783    -0.22700
C1928       C  0.79941514  0.15696434  0.38542504    -0.18000
C1929       C  0.87004621  0.14182349  0.47336038    -0.18000
C1930       C  0.89888913  0.04294832  0.43321520    -0.18000
C1931       C  0.81834098  0.05184694  0.34753310    -0.18000
H1932       H  0.83183933  0.21435508  0.40251497     0.14900
H1933       H  0.87077762  0.20623006  0.45085458     0.14900
H1934       H  0.87200847  0.01062530  0.33040592     0.14900
H1935       H  0.91588663  0.00635691  0.37621921     0.14900
H1936       H  0.74754943  0.13461958  0.34914918     0.13200
H1937       H  0.75782998  0.07826539  0.32659973     0.13200
H1938       H  0.88333199  0.09979801  0.52350895     0.13200
H1939       H  0.89878365  0.04292228  0.50125211     0.13200
H1940       H  0.82206932  0.11915179  0.43397069     0.26400
H1941       H  0.84028015  0.06415496  0.40922368     0.26400
O1942       O  0.02864528  0.30556444  0.81276293    -0.78200
C1943       C  0.94792573  0.23858253  0.80620847     0.82800
O1944       O  0.07058953  0.20912648  0.74671757    -0.79400
O1945       O  0.96583670  0.22398453  0.69649455    -0.80800
O1946       O  0.97220568  0.33484932  0.71659979    -0.80600
O1947       O  0.02936253  0.34043820  0.77326036    -0.79300
Zn1948     Zn  0.01756448  0.26184892  0.79080319     1.55700
O1949       O  0.93539781  0.29736347  0.72175173    -0.80700
Cd1950     Cd  0.01577664  0.31265653  0.73240469     1.59700
Cd1951     Cd  0.03913841  0.23576724  0.71823600     1.59600
O1952       O  0.04985207  0.30924960  0.69340920    -0.80600
O1953       O  0.00917269  0.26671125  0.74483582    -1.91200
Cd1954     Cd  0.96277214  0.25683024  0.73566542     1.59900
O1955       O  0.06767854  0.26002290  0.68531145    -0.80600
O1956       O  0.93901854  0.23995518  0.77717047    -0.79300
C1957       C  0.07472112  0.21083325  0.77661935     0.83300
C1958       C  0.03209248  0.33412736  0.80299372     0.82900
O1959       O  0.97636586  0.24654365  0.81401288    -0.78200
C1960       C  0.94296309  0.32588090  0.71469158     0.83700
O1961       O  0.05627932  0.22855310  0.79387316    -0.78300
C1962       C  0.06684540  0.28902819  0.67739239     0.83900
C1963       C  0.98523918  0.20697924  0.67957847     0.84200
O1964       O  0.01470535  0.20566994  0.68649346    -0.80700
C1965       C  0.03452717  0.22488719  0.98044648     0.80500
N1966       N  0.02942643  0.25228709  0.99639749    -0.77800
C1967       C  0.00943632  0.25340181  0.02156248     0.82900
N1968       N  0.99428705  0.22684135  0.03075274    -0.77800
C1969       C  0.99887827  0.19918162  0.01512668     0.83000
N1970       N  0.01939701  0.19802496  0.99020684    -0.79500
N1971       N  0.06749912  0.35991043  0.14979708    -0.36400
N1972       N  0.04444180  0.40856149  0.10688747    -0.56900
N1973       N  0.10012411  0.44909526  0.12397617    -0.36300
N1974       N  0.11954279  0.39986837  0.17021099    -0.56900
C1975       C  0.03985750  0.34681513  0.14045254     0.27200
C1976       C  0.07897635  0.34204233  0.17356164     0.27200
C1977       C  0.08178333  0.46975577  0.10686774     0.27200
C1978       C  0.12130237  0.46548876  0.14257976     0.27200
C1979       C  0.02791379  0.38319270  0.09603583     0.35900
C1980       C  0.04360333  0.43018533  0.08333572     0.35900
C1981       C  0.12953187  0.37149034  0.18115819     0.35900
C1982       C  0.14544594  0.41883725  0.17011950     0.35900
C1983       C  0.03320189  0.32049179  0.15889177    -0.21600
C1984       C  0.05797212  0.31754850  0.18004843    -0.21600
C1985       C  0.09211682  0.50010326  0.11424272    -0.21600
C1986       C  0.11666055  0.49744777  0.13662496    -0.21600
C1987       C  0.01590311  0.38906007  0.06612324    -0.22700
C1988       C  0.02572171  0.41865055  0.05808820    -0.22700
C1989       C  0.16169200  0.37260184  0.18837793    -0.22700
C1990       C  0.17170729  0.40250510  0.18154454    -0.22700
C1991       C  0.02486860  0.35383577  0.11161074    -0.18000
C1992       C  0.11005768  0.34457447  0.18555344    -0.18000
C1993       C  0.14509288  0.45158742  0.16353875    -0.18000
C1994       C  0.05664056  0.46110810  0.08462729    -0.18000
H1995       H  0.01366025  0.30402823  0.15589352     0.14900
H1996       H  0.06121265  0.29848241  0.19682306     0.14900
H1997       H  0.08284658  0.52194784  0.10465629     0.14900
H1998       H  0.12971743  0.51687728  0.14712996     0.14900
H1999       H  0.00184611  0.37351035  0.05132212     0.13200
H2000       H  0.02044658  0.43019513  0.03583808     0.13200
H2001       H  0.17647594  0.35394368  0.19787263     0.13200
H2002       H  0.19566947  0.41121193  0.18494822     0.13200
H2003       H  0.07985830  0.37738978  0.13775196     0.26400
H2004       H  0.09887581  0.42463689  0.12216841     0.26400
C2005       C  0.01590968  0.00229179  0.28046068     0.80500
N2006       N  0.01678028  0.97713408  0.26070443    -0.77800
C2007       C  0.99202497  0.97079976  0.24114953     0.82900
N2008       N  0.96654800  0.99038471  0.24088679    -0.77800
C2009       C  0.96526559  0.01540141  0.26091981     0.83000
N2010       N  0.98998111  0.02117825  0.28046595    -0.79500
C2011       C  0.19966711  0.25468393  0.23082841     0.80500
N2012       N  0.22520378  0.25127080  0.21112958    -0.77800
C2013       C  0.24979794  0.23248250  0.21971329     0.82900
N2014       N  0.24849698  0.21682125  0.24748873    -0.77800
C2015       C  0.22321596  0.21936424  0.26715447     0.83000
N2016       N  0.19859706  0.23834320  0.25858397    -0.79500
N2017       N  0.16978247  0.07538103  0.36123109    -0.36400
N2018       N  0.19861774  0.14546151  0.40566096    -0.56900
N2019       N  0.13428159  0.11108088  0.45055862    -0.36300
N2020       N  0.11581180  0.06220477  0.40411083    -0.56900
C2021       C  0.18818699  0.09507532  0.34390519     0.27200
C2022       C  0.14982453  0.06095614  0.34114423     0.27200
C2023       C  0.14623402  0.13728609  0.46573756     0.27200
C2024       C  0.10653402  0.10123551  0.46432989     0.27200
C2025       C  0.21085426  0.12072766  0.38982313     0.35900
C2026       C  0.19510461  0.13537621  0.43558046     0.35900
C2027       C  0.11350581  0.03894199  0.38202360     0.35900
C2028       C  0.09511063  0.05465531  0.42757689     0.35900
C2029       C  0.18050684  0.09223765  0.31208483    -0.21600
C2030       C  0.15638522  0.07025338  0.31028814    -0.21600
C2031       C  0.12498699  0.14493874  0.48976665    -0.21600
C2032       C  0.10038388  0.12214799  0.48915473    -0.21600
C2033       C  0.21686334  0.09562450  0.41008247    -0.22700
C2034       C  0.20636755  0.10489718  0.43944200    -0.22700
C2035       C  0.09136520  0.01662654  0.39131192    -0.22700
C2036       C  0.07939990  0.02660207  0.41947780    -0.22700
C2037       C  0.20802510  0.11846277  0.35701852    -0.18000
C2038       C  0.12467901  0.04127512  0.35055411    -0.18000
C2039       C  0.08809531  0.07328769  0.45516104    -0.18000
C2040       C  0.17656723  0.15196731  0.45725475    -0.18000
H2041       H  0.19013599  0.10565261  0.29244367     0.14900
H2042       H  0.14399837  0.06321687  0.28894663     0.14900
H2043       H  0.12727638  0.16423446  0.50646519     0.14900
H2044       H  0.08028772  0.12113534  0.50523146     0.14900
H2045       H  0.22482779  0.07218732  0.40353330     0.13200
H2046       H  0.20498532  0.09041133  0.46053145     0.13200
H2047       H  0.08301060  0.99627701  0.37816171     0.13200
H2048       H  0.06000101  0.01471296  0.43141792     0.13200
H2049       H  0.16917526  0.07302551  0.38569280     0.26400
H2050       H  0.14538766  0.10004198  0.43158105     0.26400
C2051       C  0.25903376  0.03674772  0.99831368     0.80500
N2052       N  0.25696671  0.03916608  0.96685480    -0.77800
C2053       C  0.23322470  0.02579508  0.95026876     0.82900
N2054       N  0.21112211  0.00796084  0.96584509    -0.77800
C2055       C  0.21428518  0.00303234  0.99773151     0.83000
N2056       N  0.23770205  0.01841775  0.01384871    -0.79500
N2057       N  0.36327008  0.14935860  0.10230756    -0.36400
N2058       N  0.40993423  0.10536425  0.07573132    -0.56900
N2059       N  0.45782519  0.12396353  0.12103569    -0.36300
N2060       N  0.40878601  0.17300920  0.14515145    -0.56900
C2061       C  0.34776143  0.13960412  0.07650309     0.27200
C2062       C  0.34801133  0.17512920  0.11326656     0.27200
C2063       C  0.47653228  0.10829503  0.09950805     0.27200
C2064       C  0.47547728  0.14540708  0.13782815     0.27200
C2065       C  0.38211983  0.09359986  0.06454419     0.35900
C2066       C  0.43192782  0.08257031  0.07057591     0.35900
C2067       C  0.38101750  0.17934150  0.15996015     0.35900
C2068       C  0.42946102  0.16485858  0.16786339     0.35900
C2069       C  0.32237942  0.15965479  0.07028345    -0.21600
C2070       C  0.32264204  0.18242338  0.09367290    -0.21600
C2071       C  0.50748086  0.11923915  0.10355161    -0.21600
C2072       C  0.50677960  0.14274093  0.12726062    -0.21600
C2073       C  0.38654241  0.06374100  0.05208113    -0.22700
C2074       C  0.41806669  0.05721566  0.05530577    -0.22700
C2075       C  0.38407664  0.17616306  0.19240989    -0.22700
C2076       C  0.41486695  0.16642130  0.19744005    -0.22700
C2077       C  0.35322953  0.11027229  0.06243126    -0.18000
C2078       C  0.35316725  0.18732284  0.14362617    -0.18000
C2079       C  0.46237759  0.16590093  0.16243292    -0.18000
C2080       C  0.46492568  0.08491524  0.07687886    -0.18000
H2081       H  0.30456518  0.15710872  0.05196605     0.14900
H2082       H  0.30497088  0.20071873  0.09720507     0.14900
H2083       H  0.52826959  0.11166994  0.09038284     0.14900
H2084       H  0.52707679  0.15604452  0.13571799     0.14900
H2085       H  0.36929303  0.04889086  0.04016553     0.13200
H2086       H  0.43006101  0.03670319  0.04615665     0.13200
H2087       H  0.36606240  0.18009605  0.21037032     0.13200
H2088       H  0.42600370  0.16284132  0.22026537     0.13200
H2089       H  0.38062506  0.13635968  0.11399623     0.26400
H2090       H  0.43366847  0.11990520  0.12481159     0.26400
N2091       N  0.18713774  0.18245305  0.88402160    -0.36400
N2092       N  0.19585857  0.13311480  0.83428087    -0.56900
N2093       N  0.14785894  0.15555010  0.79081731    -0.36300
N2094       N  0.13214891  0.19959319  0.84216202    -0.56900
C2095       C  0.20208315  0.15872725  0.89932052     0.27200
C2096       C  0.16615429  0.19511220  0.90451575     0.27200
C2097       C  0.15375388  0.12567328  0.77946264     0.27200
C2098       C  0.11816016  0.16539946  0.78227046     0.27200
C2099       C  0.22261084  0.13714810  0.85108492     0.35900
C2100       C  0.20495767  0.12225442  0.80590910     0.35900
C2101       C  0.13625916  0.22293039  0.86374496     0.35900
C2102       C  0.11777196  0.21302486  0.81695136     0.35900
C2103       C  0.19264496  0.15809797  0.93079792    -0.21600
C2104       C  0.16966357  0.18122806  0.93410170    -0.21600
C2105       C  0.12714695  0.11649772  0.76224092    -0.21600
C2106       C  0.10495730  0.14148084  0.76377582    -0.21600
C2107       C  0.24899853  0.12875826  0.83344903    -0.22700
C2108       C  0.23778312  0.11917022  0.80447797    -0.22700
C2109       C  0.12422933  0.25114387  0.85260347    -0.22700
C2110       C  0.11340974  0.24519048  0.82256637    -0.22700
C2111       C  0.22088327  0.13592413  0.88378519    -0.18000
C2112       C  0.14232461  0.21669606  0.89572142    -0.18000
C2113       C  0.10403587  0.19550043  0.79167720    -0.18000
C2114       C  0.18316105  0.10832149  0.78534061    -0.18000
H2115       H  0.20005629  0.14148577  0.94881981     0.14900
H2116       H  0.15594391  0.18607816  0.95529805     0.14900
H2117       H  0.12390924  0.09422436  0.75001379     0.14900
H2118       H  0.08154664  0.14160503  0.75310785     0.14900
H2119       H  0.27327509  0.12751194  0.84162536     0.13200
H2120       H  0.25166690  0.10919338  0.78530767     0.13200
H2121       H  0.12232472  0.27333901  0.86520869     0.13200
H2122       H  0.10235278  0.26244720  0.80721343     0.13200
H2123       H  0.18934781  0.18818983  0.86006468     0.26400
H2124       H  0.16385819  0.16933877  0.80364153     0.26400
N2125       N  0.08342815  0.90427021  0.09486185    -0.36400
N2126       N  0.06051814  0.85223224  0.13367869    -0.56900
N2127       N  0.10766103  0.80771794  0.11235137    -0.36300
N2128       N  0.13343005  0.86060503  0.07456122    -0.56900
C2129       C  0.06589629  0.91935365  0.11701275     0.27200
C2130       C  0.10592558  0.92467862  0.08491050     0.27200
C2131       C  0.09766783  0.79330668  0.13972522     0.27200
C2132       C  0.13624295  0.79564329  0.10311232     0.27200
C2133       C  0.03597833  0.87260165  0.13311578     0.35900
C2134       C  0.04860400  0.82466702  0.14426291     0.35900
C2135       C  0.13930592  0.88613918  0.05594003     0.35900
C2136       C  0.15046648  0.83645932  0.06195537     0.35900
C2137       C  0.07678164  0.95011752  0.12063773    -0.21600
C2138       C  0.10201773  0.95362296  0.09990508    -0.21600
C2139       C  0.12043043  0.77096714  0.14780703    -0.21600
C2140       C  0.14438071  0.77207646  0.12454995    -0.21600
C2141       C  0.00845566  0.85814847  0.14362653    -0.22700
C2142       C  0.01611949  0.82743143  0.14991576    -0.22700
C2143       C  0.16017264  0.87840906  0.03181681    -0.22700
C2144       C  0.16731208  0.84726672  0.03554614    -0.22700
C2145       C  0.04073095  0.90522091  0.13384447    -0.18000
C2146       C  0.12952749  0.91737911  0.06250749    -0.18000
C2147       C  0.15409528  0.80579737  0.07554114    -0.18000
C2148       C  0.06803568  0.80034873  0.15603859    -0.18000
H2149       H  0.06773659  0.96800287  0.13664738     0.14900
H2150       H  0.11635041  0.97470605  0.09684614     0.14900
H2151       H  0.11978898  0.75533837  0.16807989     0.14900
H2152       H  0.16567371  0.75768784  0.12396310     0.14900
H2153       H  0.98636492  0.86975350  0.14944793     0.13200
H2154       H  0.00036849  0.81001959  0.16037201     0.13200
H2155       H  0.17018001  0.89388834  0.01395626     0.13200
H2156       H  0.18432994  0.83476333  0.02093530     0.13200
H2157       H  0.07996340  0.88128619  0.08659872     0.26400
H2158       H  0.09516256  0.82453709  0.09947054     0.26400
N2159       N  0.80174197  0.14069857  0.12560563    -0.36400
N2160       N  0.85545134  0.14014272  0.08214948    -0.56900
N2161       N  0.89775431  0.11873540  0.13470506    -0.36300
N2162       N  0.84553539  0.11791603  0.17420831    -0.56900
C2163       C  0.78841079  0.14678613  0.09682746     0.27200
C2164       C  0.78303533  0.12012971  0.14256805     0.27200
C2165       C  0.91258199  0.10870988  0.10834335     0.27200
C2166       C  0.90776285  0.10049916  0.15880737     0.27200
C2167       C  0.83776648  0.16447512  0.07075883     0.35900
C2168       C  0.88595544  0.14579572  0.07309403     0.35900
C2169       C  0.81758557  0.12146596  0.18875724     0.35900
C2170       C  0.86803744  0.11814635  0.19658187     0.35900
C2171       C  0.75959339  0.13057941  0.09566177    -0.21600
C2172       C  0.75663386  0.11321796  0.12399729    -0.21600
C2173       C  0.93254365  0.08362538  0.11543643    -0.21600
C2174       C  0.92939912  0.07828478  0.14763155    -0.21600
C2175       C  0.85770765  0.18580540  0.05532085    -0.22700
C2176       C  0.88786712  0.17372970  0.05627823    -0.22700
C2177       C  0.82218893  0.12486142  0.22119125    -0.22700
C2178       C  0.85453517  0.12290224  0.22618178    -0.22700
C2179       C  0.80374051  0.16554296  0.07225602    -0.18000
C2180       C  0.79040975  0.10910032  0.17440703    -0.18000
C2181       C  0.89773995  0.10471531  0.19041837    -0.18000
C2182       C  0.91222006  0.12614587  0.08024621    -0.18000
H2183       H  0.74315460  0.13001026  0.07597176     0.14900
H2184       H  0.73706304  0.09775151  0.13025839     0.14900
H2185       H  0.94853712  0.07148435  0.09938339     0.14900
H2186       H  0.94194241  0.06058562  0.16125870     0.14900
H2187       H  0.85211161  0.20851341  0.04534979     0.13200
H2188       H  0.90898835  0.18506909  0.04686201     0.13200
H2189       H  0.80398881  0.12492818  0.23941382     0.13200
H2190       H  0.86626013  0.12146927  0.24895030     0.13200
H2191       H  0.82306878  0.15082444  0.13314946     0.26400
H2192       H  0.88343642  0.13883078  0.13647738     0.26400
C2193       C  0.28760306  0.05186489  0.04738390    -0.26100
C2194       C  0.28188935  0.05717186  0.01511329    -0.14100
C2195       C  0.29776146  0.08253258  0.99943598     0.36500
C2196       C  0.32008738  0.10048724  0.01578211    -0.25500
C2197       C  0.32629585  0.09429065  0.04746400    -0.14700
C2198       C  0.30967732  0.07039803  0.06381684     0.37600
N2199       N  0.31651442  0.06426666  0.09660460    -0.89000
H2200       H  0.27536600  0.03291209  0.05967203     0.18700
H2201       H  0.33315881  0.11895370  0.00352267     0.18700
N2202       N  0.29143897  0.09043967  0.96702986    -0.88000
H2203       H  0.30271172  0.04543073  0.10498672     0.36100
H2204       H  0.30972945  0.08425106  0.10956609     0.41200
H2205       H  0.31277210  0.08886024  0.95426537     0.40800
H2206       H  0.28360195  0.11389099  0.96612684     0.35700
C2207       C  0.17780534  0.95050040  0.06128843    -0.26100
C2208       C  0.14829630  0.94319734  0.04791786    -0.14100
C2209       C  0.13986376  0.95622921  0.01837808     0.36500
C2210       C  0.16142156  0.97595687  0.00246630    -0.25500
C2211       C  0.19152861  0.98273784  0.01542929    -0.14700
C2212       C  0.19957668  0.96980936  0.04533099     0.37600
N2213       N  0.23033461  0.97493258  0.05910437    -0.89000
H2214       H  0.18462088  0.93979598  0.08359957     0.18700
H2215       H  0.15470296  0.98566496  0.97969950     0.18700
N2216       N  0.11001507  0.94893251  0.00370093    -0.88000
H2217       H  0.24117890  0.95293713  0.06247264     0.36100
H2218       H  0.22711848  0.98542863  0.08132506     0.41200
H2219       H  0.09176663  0.95569299  0.01918247     0.40800
H2220       H  0.10864903  0.92445137  0.00044363     0.35700
C2221       C  0.25179781  0.08694041  0.89510143    -0.26100
C2222       C  0.22270333  0.10309847  0.89635410    -0.14100
C2223       C  0.19476367  0.08584449  0.90407788     0.36500
C2224       C  0.19728567  0.05497798  0.91588367    -0.25500
C2225       C  0.22723478  0.04106145  0.91961000    -0.14700
C2226       C  0.25388097  0.05535244  0.90480782     0.37600
N2227       N  0.28415310  0.03948394  0.90495407    -0.89000
H2228       H  0.27314080  0.09917519  0.88752106     0.18700
H2229       H  0.17631864  0.04371883  0.92582410     0.18700
N2230       N  0.16387926  0.09978644  0.90065488    -0.88000
H2231       H  0.30178694  0.05398738  0.89519148     0.36100
H2232       H  0.28218950  0.01970197  0.89021922     0.41200
H2233       H  0.15261556  0.09953601  0.92278273     0.40800
H2234       H  0.15059958  0.08561398  0.88524607     0.35700
C2235       C  0.24426945  0.17310974  0.29651188    -0.26100
C2236       C  0.22097858  0.19705883  0.29427111    -0.14100
C2237       C  0.19461131  0.19631376  0.31519033     0.36500
C2238       C  0.19189460  0.17138493  0.33704156    -0.25500
C2239       C  0.21437497  0.14681117  0.33766243    -0.14700
C2240       C  0.24051089  0.14755926  0.31687045     0.37600
N2241       N  0.26219809  0.12152020  0.31411307    -0.89000
H2242       H  0.26454910  0.17265097  0.28060508     0.18700
H2243       H  0.17126891  0.17016861  0.35248703     0.18700
N2244       N  0.16995666  0.21974686  0.31319202    -0.88000
H2245       H  0.24939318  0.10144652  0.30726638     0.36100
H2246       H  0.27219776  0.11698536  0.33618898     0.41200
H2247       H  0.17977751  0.24133494  0.32031310     0.40800
H2248       H  0.15132988  0.21455288  0.32881586     0.35700
C2249       C  0.32105787  0.23246515  0.16441423    -0.26100
C2250       C  0.32550405  0.19969486  0.16117906    -0.14100
C2251       C  0.30342933  0.17849516  0.17470647     0.36500
C2252       C  0.27837003  0.19024955  0.19257680    -0.25500
C2253       C  0.27438474  0.22285109  0.19703417    -0.14700
C2254       C  0.29527895  0.24438264  0.18222293     0.37600
N2255       N  0.29068794  0.27787115  0.18588325    -0.89000
H2256       H  0.33786839  0.24856716  0.15342376     0.18700
H2257       H  0.26203037  0.17364771  0.20358361     0.18700
N2258       N  0.30622299  0.14487601  0.17111260    -0.88000
H2259       H  0.30812272  0.29035445  0.17329772     0.36100
H2260       H  0.29392077  0.28338929  0.20981074     0.41200
H2261       H  0.32834484  0.13769420  0.17979370     0.40800
H2262       H  0.30499438  0.13926265  0.14703687     0.35700
C2263       C  0.07751987  0.05380263  0.32025471    -0.26100
C2264       C  0.10142064  0.03183063  0.32645761    -0.14100
C2265       C  0.09866979  0.00050763  0.31577667     0.36500
C2266       C  0.07050566  0.99119858  0.30051019    -0.25500
C2267       C  0.04530327  0.01278745  0.29631611    -0.14700
C2268       C  0.04944363  0.04468703  0.30564358     0.37600
N2269       N  0.02525885  0.06806547  0.30082607    -0.89000
H2270       H  0.07985955  0.07791057  0.32879671     0.18700
H2271       H  0.06786806  0.96687424  0.29283560     0.18700
N2272       N  0.12353068  0.97812612  0.32224740    -0.88000
H2273       H  0.03491201  0.08631537  0.28711359     0.36100
H2274       H  0.01888215  0.07743484  0.32288578     0.41200
H2275       H  0.14389886  0.98561524  0.31006259     0.40800
H2276       H  0.11756335  0.95587580  0.31317300     0.35700
C2277       C  0.95905082  0.07064693  0.24511953    -0.26100
C2278       C  0.94447541  0.04162463  0.25257180    -0.14100
C2279       C  0.91274581  0.03605313  0.24408396     0.36500
C2280       C  0.89681583  0.05836924  0.22569979    -0.25500
C2281       C  0.91264090  0.08581053  0.21540556    -0.14700
C2282       C  0.94354539  0.09261015  0.22616477     0.37600
N2283       N  0.96014001  0.12077921  0.21690504    -0.89000
H2284       H  0.98373835  0.07494432  0.25115652     0.18700
H2285       H  0.87286216  0.05325886  0.21758490     0.18700
N2286       N  0.89748539  0.00696361  0.25255723    -0.88000
H2287       H  0.96240258  0.12100351  0.19224623     0.36100
H2288       H  0.94641028  0.14025336  0.22372144     0.41200
H2289       H  0.89090552  0.99539528  0.23167424     0.40800
H2290       H  0.87682529  0.01239458  0.26532053     0.35700
C2291       C  0.99023734  0.96056093  0.18359563    -0.26100
C2292       C  0.99793780  0.94985817  0.21420744    -0.14100
C2293       C  0.01785277  0.92351492  0.21794116     0.36500
C2294       C  0.03198038  0.91001613  0.19136939    -0.25500
C2295       C  0.02575191  0.92172733  0.16084994    -0.14700
C2296       C  0.00417482  0.94664449  0.15682775     0.37600
N2297       N  0.99698035  0.95821866  0.12582372    -0.89000
H2298       H  0.97510540  0.98106522  0.18046078     0.18700
H2299       H  0.04809453  0.89025291  0.19455982     0.18700
N2300       N  0.02443163  0.91101950  0.24879616    -0.88000
H2301       H  0.00331817  0.98212768  0.12496725     0.36100
H2302       H  0.97234283  0.95674268  0.12277682     0.41200
H2303       H  0.04904732  0.91195776  0.25244139     0.40800
H2304       H  0.01749493  0.88725250  0.24905665     0.35700
C2305       C  0.13052912  0.31252864  0.23046974    -0.26100
C2306       C  0.12575455  0.31581086  0.19780426    -0.14100
C2307       C  0.14231098  0.29597244  0.17652766     0.36500
C2308       C  0.16529449  0.27525705  0.18803670    -0.25500
C2309       C  0.17221073  0.27382588  0.22051554    -0.14700
C2310       C  0.15372083  0.29166390  0.24203761     0.37600
N2311       N  0.15971535  0.29016278  0.27537232    -0.89000
H2312       H  0.11778177  0.32766977  0.24682807     0.18700
H2313       H  0.17865221  0.26100923  0.17129044     0.18700
N2314       N  0.13754804  0.29783374  0.14295864    -0.88000
H2315       H  0.13865239  0.28310508  0.28660016     0.36100
H2316       H  0.16547406  0.31290677  0.28327271     0.41200
H2317       H  0.14291989  0.32076312  0.13538737     0.40800
H2318       H  0.11352603  0.29332950  0.13824784     0.35700
C2319       C  0.98480107  0.29286560  0.05823425    -0.26100
C2320       C  0.01212798  0.27953348  0.04425123    -0.14100
C2321       C  0.04263606  0.28878148  0.05464233     0.36500
C2322       C  0.04529098  0.31213905  0.07767724    -0.25500
C2323       C  0.01829270  0.32629144  0.09103993    -0.14700
C2324       C  0.98752210  0.31660218  0.08143300     0.37600
N2325       N  0.95898848  0.33016383  0.09454788    -0.89000
H2326       H  0.96135806  0.28498977  0.05090910     0.18700
H2327       H  0.06879228  0.31987196  0.08504429     0.18700
N2328       N  0.07088793  0.27389762  0.04228268    -0.88000
H2329       H  0.94715272  0.34197014  0.07628821     0.36100
H2330       H  0.96427740  0.34706496  0.11181834     0.41200
H2331       H  0.07049536  0.25021500  0.04939883     0.40800
H2332       H  0.09140312  0.28388310  0.05214088     0.35700
C2333       C  0.09076378  0.19706088  0.91553960    -0.26100
C2334       C  0.11460695  0.22032071  0.91700179    -0.14100
C2335       C  0.11139282  0.24581043  0.93809573     0.36500
C2336       C  0.08455941  0.24734479  0.95769041    -0.25500
C2337       C  0.06076087  0.22366566  0.95686756    -0.14700
C2338       C  0.06375191  0.19851116  0.93504734     0.37600
N2339       N  0.03946814  0.17461887  0.93262731    -0.89000
H2340       H  0.09338567  0.17759815  0.89899373     0.18700
H2341       H  0.08289098  0.26684735  0.97426689     0.18700
N2342       N  0.13519860  0.27000523  0.94046991    -0.88000
H2343       H  0.04567426  0.15763218  0.91568426     0.36100
H2344       H  0.01877331  0.18559889  0.92441010     0.41200
H2345       H  0.13768227  0.28085262  0.91838145     0.40800
H2346       H  0.15687166  0.25931261  0.94618805     0.35700
C2347       C  0.98821193  0.16831749  0.06258968    -0.26100
C2348       C  0.98565932  0.17047345  0.02962790    -0.14100
C2349       C  0.96532896  0.14967034  0.01322874     0.36500
C2350       C  0.94430664  0.13044732  0.03082798    -0.25500
C2351       C  0.94296402  0.13286397  0.06410121    -0.14700
C2352       C  0.96678924  0.15044453  0.08007729     0.37600
N2353       N  0.96767820  0.15387249  0.11385673    -0.89000
H2354       H  0.00464558  0.18362815  0.07518621     0.18700
H2355       H  0.92632670  0.11669773  0.01858888     0.18700
N2356       N  0.96423625  0.15000643  0.97920671    -0.88000
H2357       H  0.97194912  0.13185918  0.12413582     0.36100
H2358       H  0.94596714  0.16295623  0.12187403     0.41200
H2359       H  0.95558314  0.17207161  0.97215694     0.40800
H2360       H  0.94800358  0.13313842  0.97095284     0.35700
C2361       C  0.91825139  0.33527724  0.53519305    -0.26100
C2362       C  0.93605289  0.35580272  0.55416403    -0.14100
C2363       C  0.96952913  0.35653606  0.55117603     0.36500
C2364       C  0.98483155  0.33243645  0.53378783    -0.25500
C2365       C  0.96666619  0.30869959  0.51911942    -0.14700
C2366       C  0.93326750  0.31180534  0.51762672     0.37600
N2367       N  0.91436430  0.29005852  0.49955148    -0.89000
H2368       H  0.89245218  0.33524962  0.53659323     0.18700
H2369       H  0.01058838  0.33077893  0.53381679     0.18700
N2370       N  0.98759582  0.37997689  0.56798613    -0.88000
H2371       H  0.90115362  0.30302638  0.48312024     0.36100
H2372       H  0.89838086  0.27885565  0.51493839     0.41200
H2373       H  0.98117450  0.40208249  0.55896752     0.40800
H2374       H  0.01190093  0.37722607  0.56326902     0.35700
C2375       C  0.92141527  0.20212292  0.51524744    -0.26100
C2376       C  0.95071641  0.19792617  0.49917013    -0.14100
C2377       C  0.95450157  0.17108939  0.47962315     0.36500
C2378       C  0.92822259  0.15165315  0.47351157    -0.25500
C2379       C  0.89815623  0.15840346  0.48654918    -0.14700
C2380       C  0.89507668  0.18287839  0.50866127     0.37600
N2381       N  0.86489923  0.18913987  0.52324193    -0.89000
H2382       H  0.91802651  0.22177995  0.53137680     0.18700
H2383       H  0.93088044  0.13230850  0.45683443     0.18700
N2384       N  0.98439570  0.16408519  0.46479577    -0.88000
H2385       H  0.86782979  0.18774032  0.54779435     0.36100
H2386       H  0.85833558  0.21232440  0.51767456     0.41200
H2387       H  0.98085247  0.16348655  0.44028937     0.40800
H2388       H  0.99140259  0.14147884  0.47195970     0.35700
C2389       C  0.06274062  0.24513068  0.39824351    -0.26100
C2390       C  0.08549422  0.26887060  0.40281910    -0.14100
C2391       C  0.08877834  0.28306115  0.43300881     0.36500
C2392       C  0.06774747  0.27496085  0.45719272    -0.25500
C2393       C  0.04322670  0.25307002  0.45203842    -0.14700
C2394       C  0.04154268  0.23702612  0.42268470     0.37600
N2395       N  0.01706815  0.21419311  0.41676789    -0.89000
H2396       H  0.06018633  0.23426571  0.37511806     0.18700
H2397       H  0.06952344  0.28718585  0.47971848     0.18700
N2398       N  0.11198290  0.30717454  0.43924462    -0.88000
H2399       H  0.02803214  0.19294011  0.41031524     0.36100
H2400       H  0.00354802  0.22198180  0.39753125     0.41200
H2401       H  0.10875856  0.32574617  0.42324883     0.40800
H2402       H  0.13468303  0.29759726  0.43602746     0.35700
C2403       C  0.92445930  0.55055420  0.30404984    -0.26100
C2404       C  0.94187391  0.52539158  0.31697840    -0.14100
C2405       C  0.94986233  0.52614763  0.34961459     0.36500
C2406       C  0.94164390  0.55238866  0.36792805    -0.25500
C2407       C  0.92498492  0.57773940  0.35470862    -0.14700
C2408       C  0.91559834  0.57655465  0.32265299     0.37600
N2409       N  0.89717616  0.60181726  0.30917430    -0.89000
H2410       H  0.91785567  0.55003559  0.27924804     0.18700
H2411       H  0.94841428  0.55308804  0.39269132     0.18700
N2412       N  0.96539009  0.50041412  0.36518968    -0.88000
H2413       H  0.87528418  0.60246194  0.32102039     0.36100
H2414       H  0.89213560  0.59713460  0.28538618     0.41200
H2415       H  0.98840449  0.49837397  0.35617184     0.40800
H2416       H  0.95265287  0.47961157  0.36075936     0.35700
C2417       C  0.90045752  0.47179537  0.20781527    -0.26100
C2418       C  0.91550372  0.45206368  0.22984063    -0.14100
C2419       C  0.91340648  0.41898234  0.22643808     0.36500
C2420       C  0.89911470  0.40619501  0.19974680    -0.25500
C2421       C  0.88586402  0.42565890  0.17643163    -0.14700
C2422       C  0.88533312  0.45891312  0.18106108     0.37600
N2423       N  0.87079492  0.48015496  0.15878618    -0.89000
H2424       H  0.90190178  0.49725448  0.21048585     0.18700
H2425       H  0.89990555  0.38076204  0.19652256     0.18700
N2426       N  0.92682695  0.39816916  0.24964610    -0.88000
H2427       H  0.85288817  0.49247225  0.17082895     0.36100
H2428       H  0.85931615  0.46782771  0.14066380     0.41200
H2429       H  0.94379688  0.38391928  0.23841400     0.40800
H2430       H  0.90867316  0.38346514  0.25812240     0.35700
C2431       C  0.01678998  0.40992267  0.26753699    -0.26100
C2432       C  0.01418957  0.43795269  0.28567416    -0.14100
C2433       C  0.03747801  0.44437451  0.30888873     0.36500
C2434       C  0.06166239  0.42232284  0.31433349    -0.25500
C2435       C  0.06294616  0.39400442  0.29712569    -0.14700
C2436       C  0.04066721  0.38792356  0.27325379     0.37600
N2437       N  0.04165036  0.35951242  0.25473912    -0.89000
H2438       H  0.99972983  0.40437241  0.24915987     0.18700
H2439       H  0.07922907  0.42700908  0.33254652     0.18700
N2440       N  0.03682479  0.47293459  0.32708955    -0.88000
H2441       H  0.03971683  0.34016596  0.27002304     0.36100
H2442       H  0.06376082  0.35835114  0.24336874     0.41200
H2443       H  0.05822648  0.48501816  0.32319930     0.40800
H2444       H  0.03588355  0.46674247  0.35105875     0.35700
C2445       C  0.75905003  0.44501400  0.52693174    -0.26100
C2446       C  0.75547407  0.47532807  0.54030158    -0.14100
C2447       C  0.76644777  0.48096916  0.57129685     0.36500
C2448       C  0.78371656  0.45757223  0.58685310    -0.25500
C2449       C  0.78982269  0.42832290  0.57229111    -0.14700
C2450       C  0.77612203  0.42135116  0.54260786     0.37600
N2451       N  0.77990406  0.39118931  0.52728939    -0.89000
H2452       H  0.75039874  0.44015306  0.50326432     0.18700
H2453       H  0.79345960  0.46269650  0.61008056     0.18700
N2454       N  0.76099665  0.51074356  0.58666688    -0.88000
H2455       H  0.75720003  0.38133168  0.52468733     0.36100
H2456       H  0.79278095  0.37545184  0.54131720     0.41200
H2457       H  0.78309214  0.52061093  0.59247515     0.40800
H2458       H  0.74861545  0.50644530  0.60775616     0.35700
C2459       C  0.81211176  0.57341024  0.51812600    -0.26100
C2460       C  0.78225454  0.57944706  0.50412486    -0.14100
C2461       C  0.77787179  0.60738771  0.48683232     0.36500
C2462       C  0.80425752  0.62623320  0.47978468    -0.25500
C2463       C  0.83506221  0.61723516  0.48938379    -0.14700
C2464       C  0.83874136  0.59189306  0.51069122     0.37600
N2465       N  0.86928620  0.58279203  0.52301045    -0.89000
H2466       H  0.81572398  0.55236092  0.53228671     0.18700
H2467       H  0.80102459  0.64622045  0.46406554     0.18700
N2468       N  0.74710700  0.61561195  0.47476687    -0.88000
H2469       H  0.86800343  0.58442308  0.54770064     0.36100
H2470       H  0.88703068  0.59865778  0.51599184     0.41200
H2471       H  0.74872710  0.61709096  0.45008635     0.40800
H2472       H  0.74122784  0.63804747  0.48341823     0.35700
C2473       C  0.70726766  0.46916128  0.39957527    -0.26100
C2474       C  0.67883642  0.48369197  0.39025798    -0.14100
C2475       C  0.67120091  0.51404547  0.40211430     0.36500
C2476       C  0.68999516  0.52727796  0.42636277    -0.25500
C2477       C  0.71607313  0.51054817  0.43840197    -0.14700
C2478       C  0.72599018  0.48244764  0.42344397     0.37600
N2479       N  0.75434705  0.46659633  0.43357101    -0.89000
H2480       H  0.71358106  0.44611158  0.39021455     0.18700
H2481       H  0.68281869  0.54923861  0.43754410     0.18700
N2482       N  0.64305650  0.52994075  0.39124914    -0.88000
H2483       H  0.76953734  0.46450593  0.41401044     0.36100
H2484       H  0.74810164  0.44380250  0.44091706     0.41200
H2485       H  0.64622275  0.53480724  0.36716566     0.40800
H2486       H  0.64056014  0.55176295  0.40267045     0.35700
C2487       C  0.76647446  0.22430507  0.33677729    -0.26100
C2488       C  0.78688110  0.22305566  0.31020115    -0.14100
C2489       C  0.81220944  0.20111597  0.30975995     0.36500
C2490       C  0.81594930  0.18045266  0.33508278    -0.25500
C2491       C  0.79509056  0.18124011  0.36095163    -0.14700
C2492       C  0.77048172  0.20355213  0.36232318     0.37600
N2493       N  0.74934534  0.20442515  0.38911749    -0.89000
H2494       H  0.74704155  0.24112157  0.33749705     0.18700
H2495       H  0.83512302  0.16328641  0.33444262     0.18700
N2496       N  0.83436366  0.19968699  0.28390759    -0.88000
H2497       H  0.73218434  0.22207562  0.38617896     0.36100
H2498       H  0.76277566  0.21078919  0.40895590     0.41200
H2499       H  0.83362020  0.17687190  0.27434630     0.40800
H2500       H  0.85725287  0.20355418  0.29284532     0.35700
C2501       C  0.73366993  0.32921608  0.30103622    -0.26100
C2502       C  0.73690873  0.31891249  0.26955254    -0.14100
C2503       C  0.71986286  0.33458610  0.24545423     0.36500
C2504       C  0.69831249  0.35867052  0.25358182    -0.25500
C2505       C  0.69309839  0.36663015  0.28543050    -0.14700
C2506       C  0.71185019  0.35252104  0.30922044     0.37600
N2507       N  0.70768452  0.35986725  0.34215052    -0.89000
H2508       H  0.74713603  0.31807513  0.31983488     0.18700
H2509       H  0.68386159  0.36940216  0.23533834     0.18700
N2510       N  0.72287646  0.32491271  0.21308806    -0.88000
H2511       H  0.68408817  0.35517256  0.34861101     0.36100
H2512       H  0.71227473  0.38393109  0.34551434     0.41200
H2513       H  0.73090476  0.34434601  0.20003367     0.40800
H2514       H  0.70031009  0.31846144  0.20482487     0.35700
C2515       C  0.84123785  0.25974937  0.20329646    -0.26100
C2516       C  0.80803467  0.25671837  0.20145033    -0.14100
C2517       C  0.79285224  0.25749444  0.17188977     0.36500
C2518       C  0.81050444  0.26572353  0.14502102    -0.25500
C2519       C  0.84232157  0.27513302  0.14820752    -0.14700
C2520       C  0.85854021  0.26943163  0.17667774     0.37600
N2521       N  0.89163009  0.27727695  0.17940933    -0.89000
H2522       H  0.85308804  0.25854555  0.22605651     0.18700
H2523       H  0.79833281  0.26930521  0.12277841     0.18700
N2524       N  0.75921063  0.25233789  0.16962139    -0.88000
H2525       H  0.90372182  0.25709335  0.18706707     0.36100
H2526       H  0.89402013  0.29469253  0.19685768     0.41200
H2527       H  0.75538550  0.23385975  0.15358470     0.40800
H2528       H  0.74883085  0.27277196  0.16032056     0.35700
C2529       C  0.94909730  0.58953348  0.72584076    -0.26100
C2530       C  0.96195792  0.56962311  0.70246615    -0.14100
C2531       C  0.95317265  0.57344142  0.67053783     0.36500
C2532       C  0.92904729  0.59482095  0.66326299    -0.25500
C2533       C  0.91323184  0.61144505  0.68736713    -0.14700
C2534       C  0.92447722  0.61027834  0.71877890     0.37600
N2535       N  0.91147691  0.62916581  0.74400398    -0.89000
H2536       H  0.95675756  0.58762480  0.75027126     0.18700
H2537       H  0.92080930  0.59684528  0.63901438     0.18700
N2538       N  0.96810775  0.55518989  0.64587822    -0.88000
H2539       H  0.90363899  0.61384361  0.76178101     0.36100
H2540       H  0.89178346  0.64215827  0.73656159     0.41200
H2541       H  0.99208997  0.56184808  0.64495812     0.40800
H2542       H  0.95835510  0.56069339  0.62379010     0.35700
C2543       C  0.01650008  0.47301555  0.65297866    -0.26100
C2544       C  0.01382956  0.46761606  0.68573823    -0.14100
C2545       C  0.02617674  0.43977152  0.69905765     0.36500
C2546       C  0.04481847  0.42002142  0.68041824    -0.25500
C2547       C  0.05068460  0.42752931  0.64865227    -0.14700
C2548       C  0.03511485  0.45310522  0.63427346     0.37600
N2549       N  0.03881218  0.45983450  0.60122454    -0.89000
H2550       H  0.00663094  0.49418798  0.64242367     0.18700
H2551       H  0.05588010  0.39944227  0.69103657     0.18700
N2552       N  0.02108771  0.43237815  0.73181596    -0.88000
H2553       H  0.03128871  0.43999332  0.58844134     0.36100
H2554       H  0.06301799  0.46341943  0.59654984     0.41200
H2555       H  0.04332486  0.43055140  0.74277722     0.40800
H2556       H  0.01002719  0.41023483  0.73307347     0.35700
C2557       C  0.05310890  0.56528909  0.77771841    -0.26100
C2558       C  0.04325538  0.53377223  0.77464116    -0.14100
C2559       C  0.05378185  0.51070837  0.79636843     0.36500
C2560       C  0.07337438  0.52016157  0.82150598    -0.25500
C2561       C  0.08157323  0.55203290  0.82522500    -0.14700
C2562       C  0.07184143  0.57463932  0.80287180     0.37600
N2563       N  0.08029125  0.60736663  0.80554378    -0.89000
H2564       H  0.04579029  0.58303063  0.76070195     0.18700
H2565       H  0.08150433  0.50295987  0.83858332     0.18700
N2566       N  0.04379048  0.47829860  0.79347827    -0.88000
H2567       H  0.10510379  0.60888002  0.80581078     0.36100
H2568       H  0.07147981  0.61617284  0.82698052     0.41200
H2569       H  0.01911901  0.47761101  0.79689777     0.40800
H2570       H  0.05378848  0.46455310  0.81146896     0.35700
C2571       C  0.32923122  0.60160655  0.48224049    -0.26100
C2572       C  0.34679811  0.60200064  0.51030565    -0.14100
C2573       C  0.34677677  0.57506630  0.53016680     0.36500
C2574       C  0.32651046  0.54999666  0.52350548    -0.25500
C2575       C  0.30576311  0.55105428  0.49754332    -0.14700
C2576       C  0.30899521  0.57604081  0.47536844     0.37600
N2577       N  0.29110602  0.57625845  0.44652706    -0.89000
H2578       H  0.33008781  0.62177209  0.46642781     0.18700
H2579       H  0.32563561  0.53048827  0.54011853     0.18700
N2580       N  0.36587974  0.57311284  0.55819440    -0.88000
H2581       H  0.30721225  0.57740110  0.42761610     0.36100
H2582       H  0.27719431  0.59674668  0.44615120     0.41200
H2583       H  0.36067724  0.59216112  0.57310782     0.40800
H2584       H  0.38985480  0.57393623  0.55162848     0.35700
C2585       C  0.25192139  0.45866855  0.57162438    -0.26100
C2586       C  0.23349632  0.48188457  0.55670874    -0.14100
C2587       C  0.20171884  0.48651903  0.56610328     0.36500
C2588       C  0.18682649  0.46381862  0.58458419    -0.25500
C2589       C  0.20366918  0.43728990  0.59541630    -0.14700
C2590       C  0.23712751  0.43652470  0.59171757     0.37600
N2591       N  0.25552627  0.41205464  0.60628421    -0.89000
H2592       H  0.27684165  0.45588182  0.56547133     0.18700
H2593       H  0.16128693  0.46568295  0.58775006     0.18700
N2594       N  0.18376106  0.51293542  0.55456575    -0.88000
H2595       H  0.26768666  0.39981973  0.58845528     0.36100
H2596       H  0.27256983  0.42282805  0.62076104     0.41200
H2597       H  0.17503035  0.52546807  0.57410395     0.40800
H2598       H  0.16426472  0.50428647  0.54181535     0.35700
C2599       C  0.29978151  0.68630834  0.68628418    -0.26100
C2600       C  0.28706530  0.71670357  0.69046278    -0.14100
C2601       C  0.29425958  0.74057641  0.66789232     0.36500
C2602       C  0.31292170  0.73324191  0.64146027    -0.25500
C2603       C  0.32536667  0.70294376  0.63754200    -0.14700
C2604       C  0.31914733  0.67933789  0.66042979     0.37600
N2605       N  0.33282258  0.64833858  0.65849804    -0.89000
H2606       H  0.29488722  0.66771238  0.70325908     0.18700
H2607       H  0.31854109  0.75157032  0.62438279     0.18700
N2608       N  0.28329179  0.77243864  0.67177119    -0.88000
H2609       H  0.35760891  0.65039645  0.65869306     0.36100
H2610       H  0.32582698  0.63768563  0.63730328     0.41200
H2611       H  0.26968947  0.77844669  0.65195519     0.40800
H2612       H  0.30315743  0.78737791  0.67245395     0.35700
C2613       C  0.19346054  0.67649359  0.79015377    -0.26100
C2614       C  0.22584203  0.67811013  0.78235309    -0.14100
C2615       C  0.24756142  0.65695699  0.79684361     0.36500
C2616       C  0.23651101  0.63598016  0.82009617    -0.25500
C2617       C  0.20434265  0.63598020  0.82889264    -0.14700
C2618       C  0.18264751  0.65602083  0.81345429     0.37600
N2619       N  0.14998939  0.65749064  0.82337355    -0.89000
H2620       H  0.17644140  0.69223239  0.77907674     0.18700
H2621       H  0.25325504  0.62109020  0.83263357     0.18700
N2622       N  0.28098269  0.65757497  0.79000144    -0.88000
H2623       H  0.13575462  0.65408187  0.80339376     0.36100
H2624       H  0.14556582  0.68031322  0.83188866     0.41200
H2625       H  0.28956010  0.68044064  0.79410673     0.40800
H2626       H  0.28432526  0.65185934  0.76614013     0.35700
C2627       C  0.22070829  0.81049512  0.72751639    -0.26100
C2628       C  0.20577474  0.78247602  0.73726774    -0.14100
C2629       C  0.17241671  0.77947026  0.73496176     0.36500
C2630       C  0.15498948  0.80328030  0.71991695    -0.25500
C2631       C  0.17062688  0.82960906  0.70717438    -0.14700
C2632       C  0.20355699  0.83391635  0.71210775     0.37600
N2633       N  0.22054276  0.86054424  0.69951483    -0.89000
H2634       H  0.24638083  0.81286273  0.72919438     0.18700
H2635       H  0.12961948  0.80021519  0.71624324     0.18700
N2636       N  0.15661764  0.75120676  0.74518607    -0.88000
H2637       H  0.21709669  0.86129440  0.67500405     0.36100
H2638       H  0.21126086  0.88118316  0.70952542     0.41200
H2639       H  0.14517596  0.74114743  0.72562851     0.40800
H2640       H  0.13917578  0.75756182  0.76172653     0.35700
C2641       C  0.15869900  0.55477680  0.44006409    -0.26100
C2642       C  0.15035962  0.53344802  0.41606942    -0.14100
C2643       C  0.16599130  0.50405960  0.41364563     0.36500
C2644       C  0.19161077  0.49762328  0.43398406    -0.25500
C2645       C  0.20184390  0.52049669  0.45574621    -0.14700
C2646       C  0.18449166  0.54874855  0.45966713     0.37600
N2647       N  0.19303426  0.57199277  0.48290791    -0.89000
H2648       H  0.14694091  0.57754450  0.44165042     0.18700
H2649       H  0.20434275  0.47541754  0.43207634     0.18700
N2650       N  0.15718561  0.48212338  0.38915377    -0.88000
H2651       H  0.21622473  0.57975780  0.47825493     0.36100
H2652       H  0.19258543  0.56135406  0.50524712     0.41200
H2653       H  0.13379934  0.47485199  0.39368289     0.40800
H2654       H  0.17141895  0.46186999  0.39021286     0.35700
C2655       C  0.05278478  0.66372734  0.47450286    -0.26100
C2656       C  0.02228570  0.67702449  0.47492834    -0.14100
C2657       C  0.99923550  0.66685677  0.45285785     0.36500
C2658       C  0.00783261  0.64517995  0.42929006    -0.25500
C2659       C  0.03914506  0.63399773  0.42738398    -0.14700
C2660       C  0.06150948  0.64243860  0.45095836     0.37600
N2661       N  0.09388436  0.63168375  0.45018368    -0.89000
H2662       H  0.07037620  0.67082425  0.49188976     0.18700
H2663       H  0.99087158  0.63919753  0.41088907     0.18700
N2664       N  0.96781981  0.68004298  0.45296865    -0.88000
H2665       H  0.10426121  0.63825406  0.42863244     0.36100
H2666       H  0.09399509  0.60705605  0.45199342     0.41200
H2667       H  0.95158178  0.66149826  0.45578222     0.40800
H2668       H  0.96375697  0.69049649  0.43089888     0.35700
C2669       C  0.93696090  0.75069700  0.56512143    -0.26100
C2670       C  0.95122087  0.72266494  0.55407758    -0.14100
C2671       C  0.93976218  0.69314294  0.56430626     0.36500
C2672       C  0.91475757  0.69207298  0.58580912    -0.25500
C2673       C  0.90059286  0.71992492  0.59710629    -0.14700
C2674       C  0.91120946  0.74954604  0.58637380     0.37600
N2675       N  0.89516137  0.77789637  0.59622889    -0.89000
H2676       H  0.94588945  0.77337859  0.55707381     0.18700
H2677       H  0.90574827  0.66919583  0.59327941     0.18700
N2678       N  0.95400489  0.66418926  0.55371428    -0.88000
H2679       H  0.90565100  0.79771419  0.58566718     0.36100
H2680       H  0.89838772  0.78024944  0.62066591     0.41200
H2681       H  0.93634126  0.65053313  0.54283129     0.40800
H2682       H  0.96213453  0.65186458  0.57357398     0.35700
C2683       C  0.05769353  0.76948283  0.57527757    -0.26100
C2684       C  0.05690718  0.76534543  0.54238524    -0.14100
C2685       C  0.07613135  0.78432176  0.52270298     0.36500
C2686       C  0.09404653  0.80894154  0.53624313    -0.25500
C2687       C  0.09274833  0.81437606  0.56902252    -0.14700
C2688       C  0.07511844  0.79396877  0.58870399     0.37600
N2689       N  0.07331173  0.79933378  0.62221338    -0.89000
H2690       H  0.04320338  0.75469642  0.59059255     0.18700
H2691       H  0.10765298  0.82469018  0.52114262     0.18700
N2692       N  0.07596926  0.77993290  0.48906435    -0.88000
H2693       H  0.08129619  0.77895075  0.63371393     0.36100
H2694       H  0.04942352  0.80284943  0.62833244     0.41200
H2695       H  0.09938126  0.77560736  0.48175599     0.40800
H2696       H  0.06853698  0.80106864  0.47859349     0.35700
C2697       C  0.64608650  0.28228407  0.72190890    -0.26100
C2698       C  0.67504872  0.28049616  0.70511899    -0.14100
C2699       C  0.67767668  0.29579007  0.67542422     0.36500
C2700       C  0.65305441  0.31491014  0.66490255    -0.25500
C2701       C  0.62586600  0.31942980  0.68335346    -0.14700
C2702       C  0.62120870  0.30149184  0.71111609     0.37600
N2703       N  0.59239289  0.30323655  0.72939953    -0.89000
H2704       H  0.64318412  0.26988272  0.74418738     0.18700
H2705       H  0.65613391  0.32816334  0.64310845     0.18700
N2706       N  0.70554432  0.29285064  0.65604114    -0.88000
H2707       H  0.58224051  0.28063844  0.72963925     0.36100
H2708       H  0.57572344  0.31805361  0.71868994     0.41200
H2709       H  0.71515999  0.31542063  0.65255375     0.40800
H2710       H  0.69866830  0.28388743  0.63398880     0.35700
C2711       C  0.73736258  0.17272103  0.77486435    -0.26100
C2712       C  0.71872470  0.20030551  0.77726580    -0.14100
C2713       C  0.69469955  0.20229166  0.80060287     0.36500
C2714       C  0.68915511  0.17628590  0.82033760    -0.25500
C2715       C  0.70709918  0.14852197  0.81720455    -0.14700
C2716       C  0.73156414  0.14660948  0.79458301     0.37600
N2717       N  0.75035495  0.11833089  0.79191406    -0.89000
H2718       H  0.75581751  0.17115770  0.75693535     0.18700
H2719       H  0.67053697  0.17745092  0.83815167     0.18700
N2720       N  0.67614240  0.23065032  0.80424313    -0.88000
H2721       H  0.76770203  0.12092391  0.77428360     0.36100
H2722       H  0.73525830  0.10008224  0.78452266     0.41200
H2723       H  0.69160497  0.24870310  0.81136749     0.40800
H2724       H  0.65931461  0.22802966  0.82236857     0.35700
C2725       C  0.81621262  0.25245378  0.71717699    -0.26100
C2726       C  0.78722626  0.25296253  0.70079071    -0.14100
C2727       C  0.78662750  0.24626620  0.66805211     0.36500
C2728       C  0.81419055  0.23550145  0.65316634    -0.25500
C2729       C  0.84192202  0.23068976  0.67064649    -0.14700
C2730       C  0.84375806  0.24138686  0.70226480     0.37600
N2731       N  0.87244123  0.23866220  0.72036180    -0.89000
H2732       H  0.81682161  0.25798967  0.74225123     0.18700
H2733       H  0.81285590  0.22722890  0.62887155     0.18700
N2734       N  0.75738118  0.24665917  0.65067483    -0.88000
H2735       H  0.87922063  0.21489673  0.72101312     0.36100
H2736       H  0.89030098  0.25144209  0.70874589     0.41200
H2737       H  0.75300056  0.22382989  0.64216288     0.40800
H2738       H  0.76040850  0.26160656  0.63117531     0.35700
C2739       C  0.44394088  0.22780068  0.53627470    -0.26100
C2740       C  0.46628621  0.21795711  0.51333730    -0.14100
C2741       C  0.47167152  0.18525469  0.50891329     0.36500
C2742       C  0.45521267  0.16336396  0.52783030    -0.25500
C2743       C  0.43373467  0.17375384  0.55101084    -0.14700
C2744       C  0.42802347  0.20614324  0.55536392     0.37600
N2745       N  0.40539811  0.21678389  0.57874293    -0.89000
H2746       H  0.43914950  0.25262970  0.54013297     0.18700
H2747       H  0.45867208  0.13824743  0.52402187     0.18700
N2748       N  0.49334701  0.17410302  0.48516994    -0.88000
H2749       H  0.40328408  0.24142159  0.57835366     0.36100
H2750       H  0.41437675  0.21093582  0.60105137     0.41200
H2751       H  0.48070331  0.15953382  0.46959272     0.40800
H2752       H  0.51062828  0.16027818  0.49632383     0.35700
C2753       C  0.57454738  0.26945063  0.43363065    -0.26100
C2754       C  0.56422743  0.25136473  0.45950357    -0.14100
C2755       C  0.58063026  0.22355301  0.46760521     0.36500
C2756       C  0.60386619  0.21176037  0.44714134    -0.25500
C2757       C  0.61098809  0.22744437  0.41872283    -0.14700
C2758       C  0.59801117  0.25782521  0.41306856     0.37600
N2759       N  0.60617142  0.27609174  0.38548867    -0.89000
H2760       H  0.56261307  0.29142737  0.42790627     0.18700
H2761       H  0.61393966  0.18867213  0.45197161     0.18700
N2762       N  0.57273747  0.20650326  0.49588489    -0.88000
H2763       H  0.61549405  0.29765155  0.39335856     0.36100
H2764       H  0.62442192  0.26525909  0.37260590     0.41200
H2765       H  0.59332988  0.20479339  0.50966320     0.40800
H2766       H  0.56591744  0.18360024  0.48942867     0.35700
C2767       C  0.47573873  0.32365984  0.54532181    -0.26100
C2768       C  0.49781037  0.32500387  0.51988934    -0.14100
C2769       C  0.52180589  0.34851060  0.52065917     0.36500
C2770       C  0.52685982  0.36512821  0.54870084    -0.25500
C2771       C  0.50857331  0.35874208  0.57592429    -0.14700
C2772       C  0.48172904  0.33944983  0.57375044     0.37600
N2773       N  0.46165257  0.33452406  0.60078255    -0.89000
H2774       H  0.45567870  0.30756743  0.54479462     0.18700
H2775       H  0.54667668  0.38154878  0.54991340     0.18700
N2776       N  0.54193128  0.35551572  0.49407231    -0.88000
H2777       H  0.46148595  0.31032804  0.60590487     0.36100
H2778       H  0.43848057  0.34114395  0.59466386     0.41200
H2779       H  0.52774446  0.35812524  0.47391631     0.40800
H2780       H  0.55828505  0.33728376  0.49059056     0.35700
C2781       C  0.67443266  0.07557709  0.47884000    -0.26100
C2782       C  0.70613629  0.06944515  0.48699477    -0.14100
C2783       C  0.73104988  0.07754489  0.46579813     0.36500
C2784       C  0.72356551  0.09166474  0.43693250    -0.25500
C2785       C  0.69189966  0.09833772  0.42937824    -0.14700
C2786       C  0.66709320  0.09022976  0.45044086     0.37600
N2787       N  0.63433424  0.09693393  0.44366224    -0.89000
H2788       H  0.65522741  0.06977320  0.49506285     0.18700
H2789       H  0.74247308  0.09789631  0.42056144     0.18700
N2790       N  0.76385587  0.07112800  0.47250387    -0.88000
H2791       H  0.62811318  0.08565945  0.42251963     0.36100
H2792       H  0.63174029  0.12132877  0.44067814     0.41200
H2793       H  0.76622252  0.04710759  0.47783371     0.40800
H2794       H  0.77090577  0.08450874  0.49207109     0.35700
C2795       C  0.62645970  0.96517000  0.56683103    -0.26100
C2796       C  0.63798128  0.94507981  0.59038475    -0.14100
C2797       C  0.66698327  0.95190674  0.60587266     0.36500
C2798       C  0.68463319  0.97813356  0.59616655    -0.25500
C2799       C  0.67394640  0.99757575  0.57144943    -0.14700
C2800       C  0.64411109  0.99145093  0.55725227     0.37600
N2801       N  0.63155430  0.01178741  0.53319724    -0.89000
H2802       H  0.60391100  0.96004271  0.55543147     0.18700
H2803       H  0.70737315  0.98264344  0.60742295     0.18700
N2804       N  0.67953819  0.93252618  0.63089530    -0.88000
H2805       H  0.60951078  0.02033709  0.54095271     0.36100
H2806       H  0.62776455  0.99827381  0.51278275     0.41200
H2807       H  0.66462037  0.91347925  0.63612125     0.40800
H2808       H  0.68046568  0.94642000  0.65138150     0.35700
C2809       C  0.77931415  0.04920638  0.60796046    -0.26100
C2810       C  0.76444555  0.06959771  0.58629440    -0.14100
C2811       C  0.77610045  0.10079169  0.58231924     0.36500
C2812       C  0.80373874  0.10973100  0.59771180    -0.25500
C2813       C  0.81978787  0.08857686  0.61745330    -0.14700
C2814       C  0.80692742  0.05869481  0.62389539     0.37600
N2815       N  0.82209404  0.03829270  0.64629487    -0.89000
H2816       H  0.77005833  0.02555375  0.61166765     0.18700
H2817       H  0.81342311  0.13315960  0.59347233     0.18700
N2818       N  0.76040045  0.12410854  0.56331230    -0.88000
H2819       H  0.80968514  0.01690672  0.64810880     0.36100
H2820       H  0.82024171  0.04940946  0.66835307     0.41200
H2821       H  0.73641266  0.12520253  0.56994537     0.40800
H2822       H  0.76233417  0.11808423  0.53941300     0.35700
C2823       C  0.46940951  0.04725891  0.71105697    -0.26100
C2824       C  0.45298865  0.04575569  0.73997483    -0.14100
C2825       C  0.42627353  0.06490458  0.74539289     0.36500
C2826       C  0.41492993  0.08353143  0.72060349    -0.25500
C2827       C  0.42906601  0.08186942  0.69031608    -0.14700
C2828       C  0.45722358  0.06432378  0.68582902     0.37600
N2829       N  0.47186392  0.06045928  0.65535433    -0.89000
H2830       H  0.49004689  0.03233032  0.70704922     0.18700
H2831       H  0.39308660  0.09678850  0.72398454     0.18700
N2832       N  0.40927514  0.06427724  0.77485762    -0.88000
H2833       H  0.47985563  0.08241107  0.64733789     0.36100
H2834       H  0.45496754  0.05159921  0.63948560     0.41200
H2835       H  0.42511319  0.07051276  0.79290050     0.40800
H2836       H  0.40147449  0.04114690  0.77899675     0.35700
C2837       C  0.53665305  0.03336917  0.82421120    -0.26100
C2838       C  0.53510634  0.00622937  0.80518998    -0.14100
C2839       C  0.56344027  0.98939721  0.79817596     0.36500
C2840       C  0.59258406  0.00013214  0.81029906    -0.25500
C2841       C  0.59380476  0.02754519  0.82873095    -0.14700
C2842       C  0.56569213  0.04424067  0.83578403     0.37600
N2843       N  0.56669276  0.07226922  0.85490030    -0.89000
H2844       H  0.51525437  0.04667377  0.82962535     0.18700
H2845       H  0.61424378  0.98708044  0.80537733     0.18700
N2846       N  0.56302996  0.96215657  0.77796936    -0.88000
H2847       H  0.55218205  0.06865328  0.87474608     0.36100
H2848       H  0.55710202  0.09089529  0.84175243     0.41200
H2849       H  0.57254515  0.94310749  0.79055158     0.40800
H2850       H  0.57786629  0.96663387  0.75854304     0.35700
C2851       C  0.50988533  0.89477045  0.71780503    -0.26100
C2852       C  0.50804249  0.90466246  0.68613762    -0.14100
C2853       C  0.48704166  0.92910183  0.67774696     0.36500
C2854       C  0.47118436  0.94571901  0.70154404    -0.25500
C2855       C  0.47713500  0.93916017  0.73374423    -0.14700
C2856       C  0.49445821  0.91184905  0.74171661     0.37600
N2857       N  0.49792202  0.90258430  0.77415798    -0.89000
H2858       H  0.52494569  0.87497059  0.72416759     0.18700
H2859       H  0.45719023  0.96610513  0.69469820     0.18700
N2860       N  0.48250289  0.93829821  0.64543062    -0.88000
H2861       H  0.52221641  0.90226643  0.77955682     0.36100
H2862       H  0.48922673  0.87950736  0.77642413     0.41200
H2863       H  0.47550908  0.91827685  0.63272937     0.40800
H2864       H  0.50424242  0.94608725  0.63619816     0.35700
C2865       C  0.46427555  0.55420595  0.18499640    -0.26100
C2866       C  0.48574012  0.53714608  0.16609386    -0.14100
C2867       C  0.47598722  0.52631556  0.13604632     0.36500
C2868       C  0.44578639  0.53508163  0.12448208    -0.25500
C2869       C  0.42575516  0.55471481  0.14257353    -0.14700
C2870       C  0.43498171  0.56364825  0.17344960     0.37600
N2871       N  0.41590963  0.58394479  0.19301583    -0.89000
H2872       H  0.47101944  0.56198337  0.20853666     0.18700
H2873       H  0.43878564  0.52821234  0.10075732     0.18700
N2874       N  0.49716286  0.50813211  0.11664015    -0.88000
H2875       H  0.41173947  0.60514053  0.18102285     0.36100
H2876       H  0.39419010  0.57284419  0.19754654     0.41200
H2877       H  0.50082675  0.52042741  0.09546160     0.40800
H2878       H  0.48588820  0.48674294  0.11120621     0.35700
C2879       C  0.61044045  0.47428520  0.20847839    -0.26100
C2880       C  0.58611486  0.47842811  0.18578424    -0.14100
C2881       C  0.58156282  0.45515339  0.16228888     0.36500
C2882       C  0.60126860  0.42858747  0.16182728    -0.25500
C2883       C  0.62569184  0.42504929  0.18409827    -0.14700
C2884       C  0.63044663  0.44785342  0.20767722     0.37600
N2885       N  0.65532199  0.44391115  0.23069123    -0.89000
H2886       H  0.61406393  0.49172214  0.22693803     0.18700
H2887       H  0.59811293  0.41096600  0.14340494     0.18700
N2888       N  0.55770596  0.45867606  0.13835056    -0.88000
H2889       H  0.65527305  0.46270779  0.24680651     0.36100
H2890       H  0.67715852  0.44490017  0.21877317     0.41200
H2891       H  0.54242370  0.43916085  0.13956206     0.40800
H2892       H  0.56897754  0.45834884  0.11623116     0.35700
C2893       C  0.46538637  0.72734279  0.09104304    -0.26100
C2894       C  0.46224902  0.73012940  0.05804782    -0.14100
C2895       C  0.43249572  0.72593066  0.04370895     0.36500
C2896       C  0.40733189  0.71428634  0.06184143    -0.25500
C2897       C  0.41232607  0.70579665  0.09351747    -0.14700
C2898       C  0.44058939  0.71441080  0.10902167     0.37600
N2899       N  0.44466022  0.70798760  0.14221592    -0.89000
H2900       H  0.48832564  0.73133222  0.10209918     0.18700
H2901       H  0.38499402  0.70862763  0.05045133     0.18700
N2902       N  0.42858199  0.73129370  0.01044259    -0.88000
H2903       H  0.46680181  0.71627256  0.14994935     0.36100
H2904       H  0.44491857  0.68346348  0.14528379     0.41200
H2905       H  0.41011655  0.74759215  0.00746254     0.40800
H2906       H  0.42167088  0.70998818  0.99990108     0.35700
C2907       C  0.57190097  0.76922484  0.07872835    -0.26100
C2908       C  0.57213947  0.76034797  0.04669361    -0.14100
C2909       C  0.59478196  0.77336361  0.02581960     0.36500
C2910       C  0.61535231  0.79692357  0.03688784    -0.25500
C2911       C  0.61278979  0.80779579  0.06813865    -0.14700
C2912       C  0.59161390  0.79321380  0.08953643     0.37600
N2913       N  0.58832507  0.80366103  0.12170989    -0.89000
H2914       H  0.55477469  0.75891513  0.09500885     0.18700
H2915       H  0.63158470  0.80844295  0.02053416     0.18700
N2916       N  0.59525606  0.76460936  0.99303520    -0.88000
H2917       H  0.58170946  0.82748422  0.12173082     0.36100
H2918       H  0.61037693  0.80161066  0.13293058     0.41200
H2919       H  0.61805395  0.75624114  0.98761323     0.40800
H2920       H  0.59127455  0.78496272  0.97955623     0.35700
C2921       C  0.50259182  0.66093083  0.96631391    -0.26100
C2922       C  0.52889422  0.67249155  0.98344107    -0.14100
C2923       C  0.55910446  0.65854468  0.97870039     0.36500
C2924       C  0.56291222  0.63549600  0.95529597    -0.25500
C2925       C  0.53728667  0.62654755  0.93609861    -0.14700
C2926       C  0.50676239  0.63831359  0.94239461     0.37600
N2927       N  0.48035223  0.62832012  0.92356030    -0.89000
H2928       H  0.47904478  0.67072475  0.97013038     0.18700
H2929       H  0.58657175  0.62645625  0.95031794     0.18700
N2930       N  0.58618986  0.66814708  0.99694490    -0.88000
H2931       H  0.46364396  0.61810712  0.93881764     0.36100
H2932       H  0.47010856  0.64838315  0.91334261     0.41200
H2933       H  0.60360112  0.67663667  0.98134675     0.40800
H2934       H  0.59532859  0.64819459  0.00834691     0.35700
C2935       C  0.73662787  0.38843032  0.05951578    -0.26100
C2936       C  0.75349991  0.39115504  0.08812701    -0.14100
C2937       C  0.77510277  0.41611058  0.09198455     0.36500
C2938       C  0.77493945  0.44098918  0.07013622    -0.25500
C2939       C  0.75237746  0.44171342  0.04536727    -0.14700
C2940       C  0.73548069  0.41373078  0.03810665     0.37600
N2941       N  0.71493255  0.41209046  0.01096678    -0.89000
H2942       H  0.72072612  0.36851392  0.05603265     0.18700
H2943       H  0.78969094  0.46145481  0.07506759     0.18700
N2944       N  0.79405058  0.41823702  0.12003303    -0.88000
H2945       H  0.70341977  0.39016558  0.00986828     0.36100
H2946       H  0.72936960  0.41356142  0.99080461     0.41200
H2947       H  0.78756513  0.43881084  0.13220203     0.40800
H2948       H  0.81775037  0.42082436  0.11289664     0.35700
C2949       C  0.77539585  0.57399194  0.10897961    -0.26100
C2950       C  0.79355439  0.59611624  0.09210649    -0.14100
C2951       C  0.78775374  0.60086802  0.05961033     0.36500
C2952       C  0.76684550  0.58052156  0.04359084    -0.25500
C2953       C  0.75235136  0.55541213  0.05979180    -0.14700
C2954       C  0.75496239  0.55340405  0.09297055     0.37600
N2955       N  0.73835689  0.52919840  0.11011928    -0.89000
H2956       H  0.77946525  0.57056108  0.13409709     0.18700
H2957       H  0.76456072  0.58236638  0.01808897     0.18700
N2958       N  0.80515207  0.62449122  0.04248904    -0.88000
H2959       H  0.72410966  0.54014875  0.12726131     0.36100
H2960       H  0.75518842  0.51526782  0.12182348     0.41200
H2961       H  0.78869054  0.63960164  0.03179213     0.40800
H2962       H  0.81808903  0.61323948  0.02453198     0.35700
C2963       C  0.64174753  0.54139126  0.95438839    -0.26100
C2964       C  0.64192953  0.52232817  0.92719900    -0.14100
C2965       C  0.66066617  0.49461720  0.92675097     0.36500
C2966       C  0.68130363  0.48841939  0.95234752    -0.25500
C2967       C  0.68296325  0.50922776  0.97836837    -0.14700
C2968       C  0.66156876  0.53488789  0.97998405     0.37600
N2969       N  0.66003610  0.55475349  0.00748456    -0.89000
H2970       H  0.62714075  0.56250801  0.95524816     0.18700
H2971       H  0.69707775  0.46818227  0.95129511     0.18700
N2972       N  0.65983281  0.47396889  0.89968464    -0.88000
H2973       H  0.63673703  0.55406220  0.01628685     0.36100
H2974       H  0.66497629  0.57798168  0.00052336     0.41200
H2975       H  0.63684412  0.46454412  0.89820233     0.40800
H2976       H  0.67530848  0.45487827  0.90285527     0.35700
C2977       C  0.60251116  0.60072102  0.27515064    -0.26100
C2978       C  0.57684759  0.61447121  0.29126238    -0.14100
C2979       C  0.54597888  0.61303130  0.27868852     0.36500
C2980       C  0.54094478  0.59626926  0.25063539    -0.25500
C2981       C  0.56615596  0.58042466  0.23540387    -0.14700
C2982       C  0.59752452  0.58376497  0.24704913     0.37600
N2983       N  0.62397640  0.56956824  0.23068426    -0.89000
H2984       H  0.62626800  0.60270560  0.28496223     0.18700
H2985       H  0.51684091  0.59409767  0.24179212     0.18700
N2986       N  0.51986245  0.62801978  0.29491149    -0.88000
H2987       H  0.64529896  0.57413321  0.24261618     0.36100
H2988       H  0.62585888  0.58051279  0.20855481     0.41200
H2989       H  0.51665194  0.61641423  0.31654916     0.40800
H2990       H  0.49869112  0.62507468  0.28223662     0.35700
C2991       C  0.70182963  0.73913126  0.32720663    -0.26100
C2992       C  0.70215851  0.76757476  0.30994401    -0.14100
C2993       C  0.67459044  0.78707143  0.31058955     0.36500
C2994       C  0.64727436  0.77682554  0.32718139    -0.25500
C2995       C  0.64674659  0.74740354  0.34233432    -0.14700
C2996       C  0.67435263  0.72858658  0.34251079     0.37600
N2997       N  0.67402995  0.69786038  0.35684744    -0.89000
H2998       H  0.72243926  0.72374516  0.32742498     0.18700
H2999       H  0.62580020  0.79102792  0.32692988     0.18700
N3000       N  0.67369358  0.81629042  0.29327104    -0.88000
H3001       H  0.69193967  0.69718590  0.37400629     0.36100
H3002       H  0.67950260  0.68113639  0.33939972     0.41200
H3003       H  0.69080607  0.83129690  0.30308672     0.40800
H3004       H  0.65167271  0.82749101  0.29610369     0.35700
C3005       C  0.78664312  0.69679291  0.26168579    -0.26100
C3006       C  0.79851969  0.72779460  0.25873196    -0.14100
C3007       C  0.82860276  0.73289222  0.24483234     0.36500
C3008       C  0.84454812  0.70739667  0.23103769    -0.25500
C3009       C  0.83117770  0.67692310  0.23116136    -0.14700
C3010       C  0.80273193  0.67115945  0.24808901     0.37600
N3011       N  0.78873698  0.64017490  0.25041444    -0.89000
H3012       H  0.76363380  0.69263923  0.27263050     0.18700
H3013       H  0.86663551  0.71166172  0.21835771     0.18700
N3014       N  0.84205062  0.76416793  0.24340244    -0.88000
H3015       H  0.78755386  0.63436449  0.27445860     0.36100
H3016       H  0.80323196  0.62306839  0.23988866     0.41200
H3017       H  0.86416631  0.76384732  0.23194997     0.40800
H3018       H  0.84624812  0.77156926  0.26665728     0.35700
C3019       C  0.76584333  0.84416893  0.16771016    -0.26100
C3020       C  0.73484685  0.85515962  0.16264376    -0.14100
C3021       C  0.71228185  0.85337463  0.18760503     0.36500
C3022       C  0.72018275  0.83833687  0.21570948    -0.25500
C3023       C  0.75014963  0.82450335  0.21994081    -0.14700
C3024       C  0.77380687  0.82905867  0.19631496     0.37600
N3025       N  0.80566582  0.81791375  0.20091013    -0.89000
H3026       H  0.78351770  0.84629921  0.14907767     0.18700
H3027       H  0.70175994  0.83586174  0.23354469     0.18700
N3028       N  0.68065554  0.86576208  0.18484808    -0.88000
H3029       H  0.82114106  0.83722669  0.19895728     0.36100
H3030       H  0.81105800  0.80203036  0.18267018     0.41200
H3031       H  0.68210717  0.88990317  0.18001227     0.40800
H3032       H  0.66850834  0.85430859  0.16660939     0.35700
C3033       C  0.31084017  0.56539542  0.03016351    -0.26100
C3034       C  0.28134492  0.57355763  0.01633869    -0.14100
C3035       C  0.28055734  0.59751811  0.99311879     0.36500
C3036       C  0.30921539  0.61066707  0.98249820    -0.25500
C3037       C  0.33872792  0.60108645  0.99489802    -0.14700
C3038       C  0.33952637  0.57892903  0.01979465     0.37600
N3039       N  0.36878144  0.56888614  0.03427782    -0.89000
H3040       H  0.31198424  0.54733467  0.04831334     0.18700
H3041       H  0.30863795  0.62798515  0.96358708     0.18700
N3042       N  0.25086404  0.60795849  0.97982174    -0.88000
H3043       H  0.36760097  0.57502914  0.05824752     0.36100
H3044       H  0.38833638  0.58099933  0.02492185     0.41200
H3045       H  0.25463544  0.62536697  0.96262449     0.40800
H3046       H  0.23775580  0.61859400  0.99802149     0.35700
C3047       C  0.15637312  0.50239153  0.98985448    -0.26100
C3048       C  0.18182918  0.52252458  0.98183871    -0.14100
C3049       C  0.18883697  0.52796344  0.94942441     0.36500
C3050       C  0.17351207  0.50951858  0.92630581    -0.25500
C3051       C  0.15110329  0.48665449  0.93510124    -0.14700
C3052       C  0.14130104  0.48397830  0.96686686     0.37600
N3053       N  0.11676487  0.46184006  0.97568197    -0.89000
H3054       H  0.14990581  0.49905915  0.01450445     0.18700
H3055       H  0.17949354  0.51241673  0.90148052     0.18700
N3056       N  0.21226646  0.55097076  0.94010714    -0.88000
H3057       H  0.11206782  0.46312472  0.99999204     0.36100
H3058       H  0.12541847  0.43906668  0.97132521     0.41200
H3059       H  0.20330151  0.57321106  0.94627095     0.40800
H3060       H  0.21507455  0.55115429  0.91547976     0.35700
C3061       C  0.26370011  0.48713937  0.09437368    -0.26100
C3062       C  0.23797709  0.48428650  0.07343385    -0.14100
C3063       C  0.22548202  0.45371070  0.06683610     0.36500
C3064       C  0.24271386  0.42689708  0.07645881    -0.25500
C3065       C  0.27105358  0.43038760  0.09338721    -0.14700
C3066       C  0.28035891  0.46048069  0.10424433     0.37600
N3067       N  0.30784070  0.46403847  0.12401661    -0.89000
H3068       H  0.27274450  0.51027294  0.10090915     0.18700
H3069       H  0.23470682  0.40341586  0.06990097     0.18700
N3070       N  0.19651502  0.44989734  0.04912185    -0.88000
H3071       H  0.30068662  0.47509001  0.14499276     0.36100
H3072       H  0.32402819  0.47894665  0.11248872     0.41200
H3073       H  0.17802341  0.45934107  0.06281245     0.40800
H3074       H  0.19121168  0.42593169  0.04594221     0.35700
C3075       C  0.51275633  0.41958260  0.79447520    -0.26100
C3076       C  0.51439636  0.43625254  0.76580221    -0.14100
C3077       C  0.53871722  0.42900039  0.74390130     0.36500
C3078       C  0.56250583  0.40720786  0.75237404    -0.25500
C3079       C  0.56213036  0.39265364  0.78229737    -0.14700
C3080       C  0.53631004  0.39826464  0.80307689     0.37600
N3081       N  0.53452402  0.38458536  0.83408610    -0.89000
H3082       H  0.49377991  0.42437335  0.81127645     0.18700
H3083       H  0.58241671  0.40327384  0.73649172     0.18700
N3084       N  0.54055007  0.44508310  0.71411055    -0.88000
H3085       H  0.53248364  0.36009721  0.83183677     0.36100
H3086       H  0.55530761  0.39005706  0.84655070     0.41200
H3087       H  0.54006138  0.42805684  0.69613465     0.40800
H3088       H  0.56250173  0.45674860  0.71289312     0.35700
C3089       C  0.41829673  0.52917433  0.81552553    -0.26100
C3090       C  0.44995009  0.51865317  0.81477769    -0.14100
C3091       C  0.47049907  0.52566890  0.84026454     0.36500
C3092       C  0.45973714  0.54532927  0.86472698    -0.25500
C3093       C  0.42912028  0.55830878  0.86349960    -0.14700
C3094       C  0.40776459  0.54909314  0.83949595     0.37600
N3095       N  0.37589833  0.56116399  0.83795311    -0.89000
H3096       H  0.40202542  0.52313880  0.79655645     0.18700
H3097       H  0.47616281  0.55277614  0.88307793     0.18700
N3098       N  0.50284501  0.51491007  0.84026238    -0.88000
H3099       H  0.36408771  0.55525750  0.85895458     0.36100
H3100       H  0.37680511  0.58579774  0.83614023     0.41200
H3101       H  0.50651469  0.50188385  0.86097287     0.40800
H3102       H  0.51777300  0.53472413  0.84100976     0.35700
C3103       C  0.45523189  0.49627700  0.67261955    -0.26100
C3104       C  0.43945122  0.49880773  0.70175769    -0.14100
C3105       C  0.40582121  0.50075039  0.70231358     0.36500
C3106       C  0.38870507  0.49380945  0.67478652    -0.25500
C3107       C  0.40482362  0.48564983  0.64694825    -0.14700
C3108       C  0.43790270  0.49100293  0.64495508     0.37600
N3109       N  0.45452967  0.48879341  0.61552591    -0.89000
H3110       H  0.48104018  0.49657687  0.67161864     0.18700
H3111       H  0.36310841  0.49067350  0.67626312     0.18700
N3112       N  0.38889544  0.50642546  0.73126379    -0.88000
H3113       H  0.44570519  0.50630001  0.60046848     0.36100
H3114       H  0.44941253  0.46687075  0.60543612     0.41200
H3115       H  0.37420019  0.48695337  0.73579273     0.40800
H3116       H  0.37435682  0.52620869  0.72796843     0.35700
C3117       C  0.53944334  0.25285156  0.92260857    -0.26100
C3118       C  0.51925940  0.27820111  0.93072875    -0.14100
C3119       C  0.52156066  0.30685502  0.91379660     0.36500
C3120       C  0.54565368  0.31054412  0.89146021    -0.25500
C3121       C  0.56736318  0.28615857  0.88529603    -0.14700
C3122       C  0.56347076  0.25645143  0.89993294     0.37600
N3123       N  0.58464197  0.23039212  0.89397779    -0.89000
H3124       H  0.53760292  0.23044884  0.93490976     0.18700
H3125       H  0.54877428  0.33346241  0.88040673     0.18700
N3126       N  0.50006590  0.33256512  0.91950630    -0.88000
H3127       H  0.57095878  0.21179013  0.88494599     0.36100
H3128       H  0.60126610  0.23597744  0.87640448     0.41200
H3129       H  0.48878941  0.33810223  0.89815922     0.40800
H3130       H  0.51341190  0.35225431  0.92653796     0.35700
C3131       C  0.46117512  0.34681967  0.02244792    -0.26100
C3132       C  0.44403553  0.32249568  0.00767686    -0.14100
C3133       C  0.41071528  0.32064895  0.01087409     0.36500
C3134       C  0.39560092  0.34049588  0.03246417    -0.25500
C3135       C  0.41349514  0.36129735  0.05113195    -0.14700
C3136       C  0.44608078  0.36619753  0.04464429     0.37600
N3137       N  0.46453720  0.38897791  0.06181054    -0.89000
H3138       H  0.48675471  0.34854013  0.01931399     0.18700
H3139       H  0.37043577  0.33719871  0.03733599     0.18700
N3140       N  0.39289823  0.29688205  0.99408775    -0.88000
H3141       H  0.46388025  0.38332272  0.08589139     0.36100
H3142       H  0.45388435  0.41111461  0.05885818     0.41200
H3143       H  0.39485836  0.30183098  0.96990276     0.40800
H3144       H  0.36867770  0.29822702  0.99978703     0.35700
C3145       C  0.45378185  0.15571163  0.97579753    -0.26100
C3146       C  0.42046283  0.15674284  0.97470671    -0.14100
C3147       C  0.40391999  0.18101851  0.99013913     0.36500
C3148       C  0.42089794  0.20702655  0.00156861    -0.25500
C3149       C  0.45391601  0.20914478  0.99620930    -0.14700
C3150       C  0.47078611  0.18205151  0.98643867     0.37600
N3151       N  0.50486992  0.18242188  0.98443884    -0.89000
H3152       H  0.46649384  0.13631737  0.96470461     0.18700
H3153       H  0.40761962  0.22722688  0.01025098     0.18700
N3154       N  0.36982007  0.18075149  0.99110657    -0.88000
H3155       H  0.51139329  0.17814027  0.96089344     0.36100
H3156       H  0.51354052  0.16379649  0.99820398     0.41200
H3157       H  0.36158381  0.20087148  0.97932074     0.40800
H3158       H  0.36276184  0.18236505  0.01481901     0.35700
C3159       C  0.32178453  0.19393711  0.84717830    -0.26100
C3160       C  0.35022941  0.18406556  0.83310342    -0.14100
C3161       C  0.36455927  0.20182921  0.80881578     0.36500
C3162       C  0.34974771  0.22963347  0.79915705    -0.25500
C3163       C  0.32091338  0.23967805  0.81308241    -0.14700
C3164       C  0.30680851  0.22139016  0.83730483     0.37600
N3165       N  0.27706802  0.22997914  0.85159133    -0.89000
H3166       H  0.31093734  0.17988920  0.86582529     0.18700
H3167       H  0.36094606  0.24332058  0.78050764     0.18700
N3168       N  0.39360009  0.19231097  0.79338826    -0.88000
H3169       H  0.28062095  0.23256479  0.87597019     0.36100
H3170       H  0.26092671  0.21143241  0.84809899     0.41200
H3171       H  0.40207282  0.17088802  0.80226145     0.40800
H3172       H  0.41090011  0.20937942  0.79847126     0.35700
C3173       C  0.33063424  0.30125030  0.71068005    -0.26100
C3174       C  0.31352093  0.32084232  0.73164510    -0.14100
C3175       C  0.30755456  0.35261020  0.72338326     0.36500
C3176       C  0.31794214  0.36385794  0.69418324    -0.25500
C3177       C  0.33500102  0.34429317  0.67353560    -0.14700
C3178       C  0.34161594  0.31280924  0.68178260     0.37600
N3179       N  0.36001031  0.29251262  0.66162744    -0.89000
H3180       H  0.33560215  0.27684682  0.71671534     0.18700
H3181       H  0.31330153  0.38826242  0.68780897     0.18700
N3182       N  0.29194044  0.37386188  0.74482889    -0.88000
H3183       H  0.38217737  0.30315331  0.65772098     0.36100
H3184       H  0.34835260  0.29046095  0.63987114     0.41200
H3185       H  0.27167146  0.38278792  0.73362600     0.40800
H3186       H  0.30734648  0.39277913  0.74938618     0.35700
C3187       C  0.23749162  0.35659692  0.81897103    -0.26100
C3188       C  0.24100282  0.32380483  0.82212340    -0.14100
C3189       C  0.21797002  0.30614154  0.83893929     0.36500
C3190       C  0.19158270  0.32163045  0.85186788    -0.25500
C3191       C  0.18762893  0.35416717  0.84745308    -0.14700
C3192       C  0.21090084  0.37187009  0.83105664     0.37600
N3193       N  0.20729115  0.40500482  0.82484465    -0.89000
H3194       H  0.25505262  0.37038977  0.80611699     0.18700
H3195       H  0.17337022  0.30806394  0.86403712     0.18700
N3196       N  0.22017909  0.27243312  0.84130776    -0.88000
H3197       H  0.20661152  0.41721283  0.84635028     0.36100
H3198       H  0.18577451  0.40854224  0.81294503     0.41200
H3199       H  0.19988529  0.26257085  0.83087407     0.40800
H3200       H  0.21995806  0.26641839  0.86533066     0.35700
C3201       C  0.47614655  0.81765469  0.53324137    -0.26100
C3202       C  0.44962556  0.80470566  0.51765722    -0.14100
C3203       C  0.42052106  0.80153910  0.53364699     0.36500
C3204       C  0.41718500  0.81526690  0.56351636    -0.25500
C3205       C  0.44282697  0.83124851  0.57769965    -0.14700
C3206       C  0.47308443  0.83078413  0.56326411     0.37600
N3207       N  0.50080767  0.84367971  0.57817558    -0.89000
H3208       H  0.49892582  0.81932752  0.52116604     0.18700
H3209       H  0.39404450  0.81496211  0.57498895     0.18700
N3210       N  0.39376228  0.78676107  0.51869238    -0.88000
H3211       H  0.50482185  0.83064907  0.59865598     0.36100
H3212       H  0.49675935  0.86717008  0.58460450     0.41200
H3213       H  0.37532098  0.80330095  0.51740391     0.40800
H3214       H  0.38615003  0.76815790  0.53317156     0.35700
C3215       C  0.34434880  0.93184807  0.55933935    -0.26100
C3216       C  0.36032831  0.95514107  0.57684554    -0.14100
C3217       C  0.35505538  0.98733613  0.57062670     0.36500
C3218       C  0.33143786  0.99572566  0.54912909    -0.25500
C3219       C  0.31311876  0.97229028  0.53407501    -0.14700
C3220       C  0.32059708  0.94018725  0.53806161     0.37600
N3221       N  0.30402435  0.91607770  0.52078534    -0.89000
H3222       H  0.34865599  0.90700519  0.56405280     0.18700
H3223       H  0.32644766  0.02056674  0.54521601     0.18700
N3224       N  0.37241314  0.01162135  0.58675182    -0.88000
H3225       H  0.29347437  0.90068493  0.53711256     0.36100
H3226       H  0.32078755  0.90324859  0.50768618     0.41200
H3227       H  0.39664078  0.00826928  0.58206112     0.40800
H3228       H  0.36886590  0.00874601  0.61104167     0.35700
C3229       C  0.29269553  0.06679302  0.46477986    -0.26100
C3230       C  0.27759083  0.04049450  0.45128390    -0.14100
C3231       C  0.28013979  0.03494335  0.41836587     0.36500
C3232       C  0.29904024  0.05508179  0.39991739    -0.25500
C3233       C  0.31595811  0.07987415  0.41414637    -0.14700
C3234       C  0.31233070  0.08605426  0.44675865     0.37600
N3235       N  0.32950769  0.11084299  0.46241195    -0.89000
H3236       H  0.29136263  0.07080662  0.49014428     0.18700
H3237       H  0.30133088  0.05086762  0.37468468     0.18700
N3238       N  0.26534064  0.00824248  0.40352312    -0.88000
H3239       H  0.32284575  0.13253951  0.45269406     0.36100
H3240       H  0.35387966  0.10747472  0.45854284     0.41200
H3241       H  0.24079470  0.00960241  0.40753431     0.40800
H3242       H  0.27393805  0.98760977  0.41409558     0.35700
C3243       C  0.18917466  0.95672613  0.46071601    -0.26100
C3244       C  0.20803488  0.95326443  0.48786845    -0.14100
C3245       C  0.20143436  0.92805907  0.50908940     0.36500
C3246       C  0.17926103  0.90477548  0.50063447    -0.25500
C3247       C  0.16305451  0.90684369  0.47191707    -0.14700
C3248       C  0.16677443  0.93390085  0.45260218     0.37600
N3249       N  0.14903604  0.93814320  0.42392291    -0.89000
H3250       H  0.19297053  0.97630374  0.44459306     0.18700
H3251       H  0.17559959  0.88448116  0.51589667     0.18700
N3252       N  0.21750656  0.92556610  0.53888132    -0.88000
H3253       H  0.12476774  0.93819743  0.42950152     0.36100
H3254       H  0.15370723  0.91933731  0.40854299     0.41200
H3255       H  0.22939448  0.90385864  0.53947441     0.40800
H3256       H  0.20030424  0.92549295  0.55684647     0.35700
C3257       C  0.52162518  0.86078520  0.37416510    -0.26100
C3258       C  0.54652185  0.87123672  0.39363412    -0.14100
C3259       C  0.54193688  0.87392972  0.42638214     0.36500
C3260       C  0.51392235  0.86230298  0.43970379    -0.25500
C3261       C  0.49082243  0.84745994  0.42059896    -0.14700
C3262       C  0.49355215  0.84920232  0.38741298     0.37600
N3263       N  0.46857785  0.83824297  0.36711808    -0.89000
H3264       H  0.52475896  0.85969372  0.34868518     0.18700
H3265       H  0.51178259  0.86246632  0.46528819     0.18700
N3266       N  0.56640453  0.88682320  0.44619564    -0.88000
H3267       H  0.47827560  0.82144429  0.35169814     0.36100
H3268       H  0.46103874  0.85734694  0.35335180     0.41200
H3269       H  0.55675364  0.90589750  0.45872622     0.40800
H3270       H  0.57299709  0.86951710  0.46259372     0.35700
C3271       C  0.58147405  0.98596096  0.23516374    -0.26100
C3272       C  0.55329214  0.97473296  0.22136840    -0.14100
C3273       C  0.54855632  0.94183857  0.21804467     0.36500
C3274       C  0.56944663  0.92095927  0.23306376    -0.25500
C3275       C  0.59466988  0.93266069  0.25117473    -0.14700
C3276       C  0.60208122  0.96525025  0.25046485     0.37600
N3277       N  0.62837390  0.97822555  0.26780673    -0.89000
H3278       H  0.58544101  0.01120639  0.23748257     0.18700
H3279       H  0.56404846  0.89587956  0.23333009     0.18700
N3280       N  0.52072612  0.92964149  0.20271172    -0.88000
H3281       H  0.64940089  0.96810867  0.25924799     0.36100
H3282       H  0.62583196  0.97236744  0.29173585     0.41200
H3283       H  0.50777756  0.91636768  0.21921398     0.40800
H3284       H  0.52812174  0.91442509  0.18459839     0.35700
C3285       C  0.44301494  0.96811745  0.17407559    -0.26100
C3286       C  0.44625768  0.99960129  0.18378032    -0.14100
C3287       C  0.42075913  0.02097489  0.17931860     0.36500
C3288       C  0.39231751  0.01010076  0.16559200    -0.25500
C3289       C  0.38914649  0.97849487  0.15621202    -0.14700
C3290       C  0.41496087  0.95737169  0.16035474     0.37600
N3291       N  0.41360726  0.92490762  0.15061116    -0.89000
H3292       H  0.46212923  0.95137174  0.17790405     0.18700
H3293       H  0.37290683  0.02642369  0.16134958     0.18700
N3294       N  0.42397347  0.05358142  0.18851588    -0.88000
H3295       H  0.41126802  0.92381556  0.12606109     0.36100
H3296       H  0.39395301  0.91405129  0.16124206     0.41200
H3297       H  0.40305247  0.06605639  0.18367541     0.40800
H3298       H  0.44184420  0.06359202  0.17441298     0.35700
C3299       C  0.50246012  0.06207502  0.29890592    -0.26100
C3300       C  0.48275359  0.04052509  0.28300204    -0.14100
C3301       C  0.45241886  0.03334458  0.29530558     0.36500
C3302       C  0.43994080  0.05176473  0.31955402    -0.25500
C3303       C  0.45758381  0.07689140  0.33223161    -0.14700
C3304       C  0.49011864  0.08020559  0.32407633     0.37600
N3305       N  0.50913759  0.10425314  0.33896911    -0.89000
H3306       H  0.52633097  0.06655618  0.29014988     0.18700
H3307       H  0.41519850  0.04832088  0.32609276     0.18700
N3308       N  0.43356181  0.00831346  0.28207670    -0.88000
H3309       H  0.53223916  0.10422982  0.32963417     0.36100
H3310       H  0.51112057  0.09834968  0.36292540     0.41200
H3311       H  0.41227055  0.01799761  0.27371975     0.40800
H3312       H  0.42799386  0.99241984  0.30023129     0.35700
C3313       C  0.42858110  0.71583428  0.37043389    -0.26100
C3314       C  0.40874113  0.69439595  0.38594844    -0.14100
C3315       C  0.39785584  0.70065428  0.41674823     0.36500
C3316       C  0.40794690  0.72815191  0.43216277    -0.25500
C3317       C  0.42859502  0.74960404  0.41700770    -0.14700
C3318       C  0.43859575  0.74336639  0.38552509     0.37600
N3319       N  0.45944675  0.76432371  0.36878682    -0.89000
H3320       H  0.43672261  0.71088687  0.34653041     0.18700
H3321       H  0.39965806  0.73255594  0.45609457     0.18700
N3322       N  0.37651098  0.67920107  0.43225275    -0.88000
H3323       H  0.44798995  0.77130585  0.34796166     0.36100
H3324       H  0.47998194  0.75182130  0.36246576     0.41200
H3325       H  0.35562136  0.69150056  0.43773053     0.40800
H3326       H  0.38697256  0.67237227  0.45358842     0.35700
C3327       C  0.20728299  0.81234949  0.29715378    -0.26100
C3328       C  0.21634021  0.78042054  0.29409472    -0.14100
C3329       C  0.21047475  0.75961184  0.31970047     0.36500
C3330       C  0.19306270  0.77035127  0.34611789    -0.25500
C3331       C  0.18169204  0.80149354  0.34732129    -0.14700
C3332       C  0.19002756  0.82289117  0.32332622     0.37600
N3333       N  0.17961295  0.85513384  0.32484239    -0.89000
H3334       H  0.21251059  0.82931653  0.27863943     0.18700
H3335       H  0.18679619  0.75391068  0.36480361     0.18700
N3336       N  0.22118484  0.72749269  0.31873194    -0.88000
H3337       H  0.16584415  0.85978303  0.30477549     0.36100
H3338       H  0.19976679  0.86967917  0.32401358     0.41200
H3339       H  0.20132040  0.71271450  0.32098835     0.40800
H3340       H  0.23594298  0.72372089  0.33828561     0.35700
C3341       C  0.31148755  0.70782310  0.22021234    -0.26100
C3342       C  0.27995491  0.70522553  0.23122100    -0.14100
C3343       C  0.27023882  0.67734062  0.24662170     0.36500
C3344       C  0.29301719  0.65462591  0.25470179    -0.25500
C3345       C  0.32544509  0.65979162  0.24825919    -0.14700
C3346       C  0.33451190  0.68544753  0.22878125     0.37600
N3347       N  0.36704550  0.69077236  0.21949860    -0.89000
H3348       H  0.31909348  0.72886738  0.20765180     0.18700
H3349       H  0.28581912  0.63462086  0.26910629     0.18700
N3350       N  0.23763098  0.67293107  0.25573831    -0.88000
H3351       H  0.36783764  0.69050997  0.19472978     0.36100
H3352       H  0.38160360  0.67220692  0.22692639     0.41200
H3353       H  0.23676675  0.67010265  0.28033315     0.40800
H3354       H  0.22950727  0.65194508  0.24538297     0.35700
C3355       C  0.29026714  0.84189499  0.15847291    -0.26100
C3356       C  0.26786475  0.86640886  0.15676713    -0.14100
C3357       C  0.23775585  0.86281066  0.17079590     0.36500
C3358       C  0.23091324  0.83474716  0.18727943    -0.25500
C3359       C  0.25375212  0.81045911  0.18980920    -0.14700
C3360       C  0.28355007  0.81404106  0.17484415     0.37600
N3361       N  0.30764459  0.79021735  0.17740180    -0.89000
H3362       H  0.31330334  0.84457698  0.14708845     0.18700
H3363       H  0.20799480  0.83211407  0.19886718     0.18700
N3364       N  0.21447167  0.88754363  0.16820401    -0.88000
H3365       H  0.32764073  0.80033554  0.18813896     0.36100
H3366       H  0.31411019  0.78317803  0.15452606     0.41200
H3367       H  0.22337164  0.90734203  0.18014414     0.40800
H3368       H  0.19338545  0.88105651  0.17974140     0.35700
C3369       C  0.90141612  0.97936251  0.71095848    -0.26100
C3370       C  0.92839308  0.96070808  0.70469161    -0.14100
C3371       C  0.92660414  0.93578631  0.68283435     0.36500
C3372       C  0.89875386  0.93193771  0.66523394    -0.25500
C3373       C  0.87288690  0.95257294  0.66955178    -0.14700
C3374       C  0.87358022  0.97536518  0.69354401     0.37600
N3375       N  0.84661212  0.99510636  0.69958653    -0.89000
H3376       H  0.90229389  0.99790261  0.72871444     0.18700
H3377       H  0.89778271  0.91378772  0.64709213     0.18700
N3378       N  0.95338807  0.91556181  0.67730439    -0.88000
H3379       H  0.85433713  0.01857437  0.69823093     0.36100
H3380       H  0.83922889  0.99111619  0.72291418     0.41200
H3381       H  0.95969630  0.91728078  0.65338846     0.40800
H3382       H  0.94621416  0.89227390  0.68167384     0.35700
C3383       C  0.03457987  0.90919856  0.75479374    -0.26100
C3384       C  0.02011591  0.93478626  0.77015913    -0.14100
C3385       C  0.02463703  0.93962960  0.80287203     0.36500
C3386       C  0.04536008  0.92007083  0.81937310    -0.25500
C3387       C  0.06174108  0.89612309  0.80349713    -0.14700
C3388       C  0.05589325  0.88984808  0.77126951     0.37600
N3389       N  0.07337331  0.86542604  0.75513563    -0.89000
H3390       H  0.03077140  0.90558265  0.72965898     0.18700
H3391       H  0.05023113  0.92477646  0.84415304     0.18700
N3392       N  0.00874409  0.96480542  0.81922322    -0.88000
H3393       H  0.06696382  0.86448987  0.73122925     0.36100
H3394       H  0.06672347  0.84378687  0.76514086     0.41200
H3395       H  0.02609529  0.97941857  0.82933352     0.40800
H3396       H  0.99526972  0.95495908  0.83760297     0.35700
C3397       C  0.98781063  0.04465261  0.78940521    -0.26100
C3398       C  0.98580395  0.04239898  0.75629935    -0.14100
C3399       C  0.97063273  0.06653530  0.73894096     0.36500
C3400       C  0.95391099  0.08995926  0.75535663    -0.25500
C3401       C  0.95174994  0.08887293  0.78839674    -0.14700
C3402       C  0.96989247  0.06692912  0.80584172     0.37600
N3403       N  0.96875704  0.06487088  0.83987363    -0.89000
H3404       H  0.99965734  0.02644932  0.80295574     0.18700
H3405       H  0.94058540  0.10766534  0.74240995     0.18700
N3406       N  0.96984770  0.06534712  0.70490158    -0.88000
H3407       H  0.99162097  0.06971502  0.84836965     0.36100
H3408       H  0.95364395  0.08174273  0.84985366     0.41200
H3409       H  0.99324239  0.06797482  0.69677438     0.40800
H3410       H  0.95688973  0.08439830  0.69583435     0.35700
C3411       C  0.91107338  0.72285331  0.87756773    -0.26100
C3412       C  0.89111170  0.70165022  0.89355329    -0.14100
C3413       C  0.88614209  0.70473468  0.92647539     0.36500
C3414       C  0.90474094  0.72605180  0.94350084    -0.25500
C3415       C  0.92848898  0.74343406  0.92799139    -0.14700
C3416       C  0.93014548  0.74366953  0.89473392     0.37600
N3417       N  0.95262058  0.76353277  0.87862685    -0.89000
H3418       H  0.91443140  0.72085045  0.85216680     0.18700
H3419       H  0.90302828  0.72642558  0.96912993     0.18700
N3420       N  0.86401462  0.68504053  0.94325948    -0.88000
H3421       H  0.94002972  0.77790643  0.86289076     0.36100
H3422       H  0.96784640  0.74909676  0.86535177     0.41200
H3423       H  0.87084153  0.66141824  0.94080215     0.40800
H3424       H  0.84158723  0.68782131  0.93292011     0.35700
C3425       C  0.93809491  0.81957350  0.01858365    -0.26100
C3426       C  0.96835420  0.80534355  0.01684954    -0.14100
C3427       C  0.99111753  0.81218013  0.04050916     0.36500
C3428       C  0.98289304  0.83231277  0.06560454    -0.25500
C3429       C  0.95238317  0.84549390  0.06745752    -0.14700
C3430       C  0.92999775  0.83941884  0.04364674     0.37600
N3431       N  0.89873633  0.85296378  0.04529782    -0.89000
H3432       H  0.92030932  0.81523481  0.00053270     0.18700
H3433       H  0.00019390  0.83718241  0.08384774     0.18700
N3434       N  0.02221278  0.79829405  0.03970544    -0.88000
H3435       H  0.88209895  0.83453742  0.04538684     0.36100
H3436       H  0.89513727  0.86642567  0.02485446     0.41200
H3437       H  0.02540757  0.78549449  0.06064088     0.40800
H3438       H  0.03900907  0.81658248  0.03933502     0.35700
C3439       C  0.06661112  0.77437772  0.95200043    -0.26100
C3440       C  0.04263900  0.75361180  0.94199363    -0.14100
C3441       C  0.04789247  0.73487210  0.91458115     0.36500
C3442       C  0.07278771  0.74303264  0.89384875    -0.25500
C3443       C  0.09310742  0.76814418  0.90129287    -0.14700
C3444       C  0.09180445  0.78184763  0.93188252     0.37600
N3445       N  0.11396244  0.80562691  0.94191205    -0.89000
H3446       H  0.06402614  0.78766702  0.97382343     0.18700
H3447       H  0.07469356  0.73168646  0.87089217     0.18700
N3448       N  0.02671564  0.70925660  0.90686584    -0.88000
H3449       H  0.11298174  0.82474576  0.92628208     0.36100
H3450       H  0.13682155  0.79592532  0.94122946     0.41200
H3451       H  0.02877576  0.69235772  0.92481377     0.40800
H3452       H  0.03386379  0.69819770  0.88585183     0.35700
C3453       C  0.83331523  0.02110713  0.90573988    -0.26100
C3454       C  0.80078150  0.01462175  0.90975231    -0.14100
C3455       C  0.77819947  0.03066974  0.89080743     0.36500
C3456       C  0.78861098  0.05535923  0.87096923    -0.25500
C3457       C  0.82091493  0.06367773  0.86964672    -0.14700
C3458       C  0.84356747  0.04558228  0.88638996     0.37600
N3459       N  0.87690069  0.05313333  0.88630699    -0.89000
H3460       H  0.85098621  0.00841475  0.91942308     0.18700
H3461       H  0.77140259  0.06945856  0.85812008     0.18700
N3462       N  0.74481377  0.02351424  0.89334120    -0.88000
H3463       H  0.88576553  0.05068822  0.86330192     0.36100
H3464       H  0.87992196  0.07653418  0.89375749     0.41200
H3465       H  0.74139490  0.00093402  0.88380242     0.40800
H3466       H  0.73144870  0.03893814  0.87932269     0.35700
C3467       C  0.69731699  0.89236631  0.97712807    -0.26100
C3468       C  0.67547840  0.89797949  0.95293273    -0.14100
C3469       C  0.67799628  0.92579913  0.93440323     0.36500
C3470       C  0.70382821  0.94602640  0.93909051    -0.25500
C3471       C  0.72726246  0.93931906  0.96174327    -0.14700
C3472       C  0.72310547  0.91280846  0.98186920     0.37600
N3473       N  0.74559173  0.90553959  0.00621170    -0.89000
H3474       H  0.69528852  0.87108908  0.99131521     0.18700
H3475       H  0.70597593  0.96670919  0.92409212     0.18700
N3476       N  0.65567574  0.93371887  0.90984436    -0.88000
H3477       H  0.75470720  0.88294143  0.00183007     0.36100
H3478       H  0.73345449  0.90494319  0.02787012     0.41200
H3479       H  0.63680669  0.91776005  0.90859019     0.40800
H3480       H  0.66770863  0.93251745  0.88815995     0.35700
C3481       C  0.84213483  0.99855616  0.02597638    -0.26100
C3482       C  0.82630133  0.97179194  0.01384583    -0.14100
C3483       C  0.83250588  0.94177484  0.02669111     0.36500
C3484       C  0.85309061  0.93904370  0.05223295    -0.25500
C3485       C  0.86791608  0.96571820  0.06528140    -0.14700
C3486       C  0.86282696  0.99577023  0.05185289     0.37600
N3487       N  0.87805823  0.02349531  0.06418056    -0.89000
H3488       H  0.83779480  0.02168519  0.01583366     0.18700
H3489       H  0.85699560  0.91587281  0.06252446     0.18700
N3490       N  0.81838314  0.91384310  0.01355788    -0.88000
H3491       H  0.90269203  0.01997106  0.06326485     0.36100
H3492       H  0.87148791  0.02617827  0.08792883     0.41200
H3493       H  0.80591695  0.90231433  0.03166117     0.40800
H3494       H  0.83672308  0.89886865  0.00606246     0.35700
C3495       C  0.75981598  0.67190019  0.73500319    -0.26100
C3496       C  0.77051158  0.69967493  0.72031894    -0.14100
C3497       C  0.80354228  0.70569432  0.71823415     0.36500
C3498       C  0.82477404  0.68606179  0.73492102    -0.25500
C3499       C  0.81332003  0.66082224  0.75331347    -0.14700
C3500       C  0.78063962  0.65282349  0.75201161     0.37600
N3501       N  0.76735157  0.62743958  0.77026126    -0.89000
H3502       H  0.73447213  0.66707037  0.73651060     0.18700
H3503       H  0.84992235  0.69183527  0.73558584     0.18700
N3504       N  0.81502932  0.73333539  0.70202704    -0.88000
H3505       H  0.77315551  0.63080217  0.79410052     0.36100
H3506       H  0.77718043  0.60615795  0.76246444     0.41200
H3507       H  0.80999349  0.73037880  0.67795513     0.40800
H3508       H  0.83981930  0.73493501  0.70383220     0.35700
C3509       C  0.65799289  0.79771480  0.80621066    -0.26100
C3510       C  0.66855904  0.78382180  0.83436985    -0.14100
C3511       C  0.69245940  0.76064210  0.83358221     0.36500
C3512       C  0.70563468  0.75195398  0.80441137    -0.25500
C3513       C  0.69462287  0.76548852  0.77591040    -0.14700
C3514       C  0.66984471  0.78801696  0.77694163     0.37600
N3515       N  0.65603253  0.80027806  0.74838078    -0.89000
H3516       H  0.63906309  0.81513111  0.80711121     0.18700
H3517       H  0.72460356  0.73460164  0.80412727     0.18700
N3518       N  0.70323873  0.74535713  0.86184794    -0.88000
H3519       H  0.63821741  0.81680125  0.75347214     0.36100
H3520       H  0.64489073  0.78144834  0.73672971     0.41200
H3521       H  0.68367096  0.73445552  0.87267061     0.40800
H3522       H  0.71198475  0.76265615  0.87726485     0.35700
C3523       C  0.75807648  0.79949680  0.65216134    -0.26100
C3524       C  0.73051125  0.79808590  0.67089602    -0.14100
C3525       C  0.70878731  0.82378015  0.66999322     0.36500
C3526       C  0.71709343  0.85167796  0.65402552    -0.25500
C3527       C  0.74625156  0.85397662  0.63831699    -0.14700
C3528       C  0.76614810  0.82719933  0.63604488     0.37600
N3529       N  0.79552134  0.82869401  0.61874515    -0.89000
H3530       H  0.77472318  0.77993829  0.65172136     0.18700
H3531       H  0.70128747  0.87186932  0.65486128     0.18700
N3532       N  0.67858571  0.82201882  0.68569627    -0.88000
H3533       H  0.79518577  0.81092183  0.60150775     0.36100
H3534       H  0.81414360  0.82383052  0.63439738     0.41200
H3535       H  0.66076123  0.82538930  0.66876897     0.40800
H3536       H  0.67728254  0.84071417  0.70189446     0.35700
loop_ 
_geom_bond_atom_site_label_1 
_geom_bond_atom_site_label_2 
_geom_bond_distance 
_geom_bond_site_symmetry_2 
_ccdc_geom_bond_type 
O1           C17   1.280       .  A
O1           Zn7   2.061       .  S
C2           O18   1.281       .  A
C2           O15   1.284       .  A
C2          C510   1.528       .  S
O3           C16   1.280       .  A
O3          Cd10   2.132       .  S
O4           C22   1.299       .  A
O4          Cd13   2.174       .  S
O5           C19   1.289       .  A
O5           Cd9   2.203       .  S
O6           C17   1.286       .  A
O6           Cd9   2.149       .  S
Zn7          O18   2.105       .  S
Zn7          O20   2.093       .  S
Zn7          O12   1.972       .  S
O8           C19   1.278       .  A
O8          Cd13   2.086       .  S
Cd9          O11   2.191       .  S
Cd9          O12   2.054       .  S
Cd10         O14   2.128       .  S
Cd10         O23   2.129       .  S
Cd10         O12   2.122       .  S
O11          C21   1.303       .  A
O12         Cd13   2.016       .  S
Cd13         O15   2.164       .  S
O14          C21   1.277       .  A
C16          O20   1.289       .  A
C16        C1013   1.530       .  S
C17        C1742   1.506       .  S
C19         C870   1.531       .  S
C21        C1373   1.534       .  S
C22          O23   1.278       .  A
C22        C1561   1.527       .  S
O24          C40   1.292       .  A
O24         Zn30   2.159       .  S
C25          O41   1.288       .  A
C25          O38   1.279       .  A
C25        C1743   1.517       .  S
O26          C39   1.281       .  A
O26         Cd33   2.129       .  S
O27          C45   1.291       .  A
O27         Cd36   2.128       .  S
O28          C42   1.283       .  A
O28         Cd32   2.133       .  S
O29          C40   1.282       .  A
O29         Cd32   2.142       .  S
Zn30         O41   2.125       .  S
Zn30         O43   2.152       .  S
Zn30         O35   1.989       .  S
O31          C42   1.280       .  A
O31         Cd36   2.132       .  S
Cd32         O34   2.151       .  S
Cd32         O35   2.018       .  S
Cd33         O37   2.129       .  S
Cd33         O46   2.142       .  S
Cd33         O35   2.138       .  S
O34          C44   1.297       .  A
O35         Cd36   2.030       .  S
Cd36         O38   2.121       .  S
O37          C44   1.276       .  A
C39          O43   1.299       .  A
C39        C1099   1.531       .  S
C40         C904   1.533       .  S
C42         C664   1.510       .  S
C44        C2079   1.533       .  S
C45          O46   1.277       .  A
C45        C1299   1.535       .  S
C47        C3524   1.483       .  S
C47          N48   1.355       .  A
C47          N52   1.366       .  A
N48          C49   1.352       .  A
C49        C3513   1.476       .  S
C49          N50   1.349       .  A
N50          C51   1.354       .  A
C51        C3496   1.473       .  S
C51          N52   1.361       .  A
C53        C3471   1.482       .  S
C53          N54   1.361       .  A
C53          N58   1.354       .  A
N54          C55   1.357       .  A
C55        C3454   1.477   1_565  S
C55          N56   1.357       .  A
N56          C57   1.350       .  A
C57        C3482   1.466   1_556  S
C57          N58   1.354       .  A
C59        C3426   1.477   1_556  S
C59          N60   1.361   1_655  A
C59          N64   1.356       .  A
N60          C61   1.362       .  A
C61        C3440   1.480       .  S
C61          N62   1.352   1_455  A
N62          C63   1.349       .  A
C63        C3415   1.454       .  S
C63          N64   1.347       .  A
C65        C3370   1.458       .  S
C65          N66   1.350   1_565  A
C65          N70   1.354       .  A
N66          C67   1.348       .  A
C67        C3398   1.462       .  S
C67          N68   1.351   1_645  A
N68          C69   1.355       .  A
C69        C3384   1.455       .  S
C69          N70   1.356   1_455  A
N71          C76   1.341       .  A
N71          C75   1.353       .  A
N71         H103   1.041       .  S
N72          C79   1.344       .  A
N72          C80   1.334       .  A
N73          C78   1.369       .  A
N73          C77   1.370       .  A
N73         H104   1.039       .  S
N74          C81   1.355       .  A
N74          C82   1.358       .  A
C75          C83   1.387       .  A
C75          C91   1.408       .  A
C76          C92   1.397       .  A
C76          C84   1.387       .  A
C77          C85   1.389       .  A
C77          C94   1.457       .  A
C78          C93   1.457       .  A
C78          C86   1.389       .  A
C79          C91   1.387       .  A
C79          C87   1.380       .  A
C80          C94   1.399       .  A
C80          C88   1.392       .  A
C81          C89   1.383       .  A
C81          C92   1.413       .  A
C82          C90   1.386       .  A
C82          C93   1.420       .  A
C83          C84   1.373       .  A
C83          H95   1.082       .  S
C84          H96   1.082       .  S
C85          C86   1.407       .  A
C85          H97   1.082       .  S
C86          H98   1.082       .  S
C87          C88   1.372       .  A
C87          H99   1.083       .  S
C88         H100   1.081       .  S
C89          C90   1.359       .  A
C89         H101   1.082       .  S
C90         H102   1.082       .  S
C91        C3443   1.478       .  S
C92        C3387   1.464       .  S
C93         C408   1.537       .  S
C94         C359   1.521       .  S
N105        C110   1.344       .  A
N105        C109   1.343       .  A
N105        H137   1.038       .  S
N106        C113   1.356       .  A
N106        C114   1.349       .  A
N107        C112   1.373       .  A
N107        C111   1.367       .  A
N107        H138   1.038       .  S
N108        C115   1.349       .  A
N108        C116   1.345       .  A
C109        C117   1.385       .  A
C109        C125   1.397       .  A
C110        C126   1.401       .  A
C110        C118   1.386       .  A
C111        C119   1.389       .  A
C111        C128   1.452       .  A
C112        C127   1.456       .  A
C112        C120   1.388       .  A
C113        C125   1.407       .  A
C113        C121   1.383       .  A
C114        C128   1.415       .  A
C114        C122   1.393       .  A
C115        C123   1.383       .  A
C115        C126   1.405       .  A
C116        C124   1.391       .  A
C116        C127   1.408       .  A
C117        C118   1.378       .  A
C117        H129   1.082       .  S
C118        H130   1.082       .  S
C119        C120   1.404       .  A
C119        H131   1.082       .  S
C120        H132   1.082       .  S
C121        C122   1.361       .  A
C121        H133   1.082       .  S
C122        H134   1.082       .  S
C123        C124   1.370       .  A
C123        H135   1.082       .  S
C124        H136   1.081       .  S
C125       C3485   1.475       .  S
C126       C3429   1.470       .  S
C127        C454   1.522       .  S
C128        C728   1.508       .  S
N139        C144   1.342       .  A
N139        C143   1.349       .  A
N139        H171   1.044       .  S
N140        C147   1.347       .  A
N140        C148   1.337       .  A
N141        C146   1.370       .  A
N141        C145   1.367       .  A
N141        H172   1.042       .  S
N142        C149   1.349       .  A
N142        C150   1.352       .  A
C143        C151   1.387       .  A
C143        C159   1.404       .  A
C144        C160   1.398       .  A
C144        C152   1.387       .  A
C145        C153   1.390       .  A
C145        C162   1.456       .  A
C146        C161   1.459       .  A
C146        C154   1.390       .  A
C147        C159   1.390       .  A
C147        C155   1.378       .  A
C148        C162   1.404       .  A
C148        C156   1.395       .  A
C149        C157   1.381       .  A
C149        C160   1.399       .  A
C150        C158   1.388       .  A
C150        C161   1.419       .  A
C151        C152   1.378       .  A
C151        H163   1.082       .  S
C152        H164   1.082       .  S
C153        C154   1.410       .  A
C153        H165   1.082       .  S
C154        H166   1.082       .  S
C155        C156   1.371       .  A
C155        H167   1.081       .  S
C156        H168   1.083       .  S
C157        C158   1.372       .  A
C157        H169   1.082   1_565  S
C158        H170   1.079   1_565  S
C159       C3527   1.479       .  S
C160       C3373   1.465       .  S
C161       C1256   1.547       .  S
C162        C434   1.519       .  S
N173        C178   1.338       .  A
N173        C177   1.351       .  A
N173        H205   1.042       .  S
N174        C181   1.345       .  A
N174        C182   1.336       .  A
N175        C180   1.368       .  A
N175        C179   1.367       .  A
N175        H206   1.043       .  S
N176        C183   1.352       .  A
N176        C184   1.360       .  A
C177        C185   1.386       .  A
C177        C193   1.406       .  A
C178        C194   1.398       .  A
C178        C186   1.388       .  A
C179        C187   1.389       .  A
C179        C196   1.451       .  A
C180        C195   1.454       .  A
C180        C188   1.390       .  A
C181        C193   1.396       .  A
C181        C189   1.373       .  A
C182        C196   1.400       .  A
C182        C190   1.394       .  A
C183        C191   1.383       .  A
C183        C194   1.413       .  A
C184        C192   1.390       .  A
C184        C195   1.427       .  A
C185        C186   1.381       .  A
C185        H197   1.082       .  S
C186        H198   1.082       .  S
C187        C188   1.407       .  A
C187        H199   1.082       .  S
C188        H200   1.082       .  S
C189        C190   1.371       .  A
C189        H201   1.072       .  S
C190        H202   1.083       .  S
C191        C192   1.370       .  A
C191        H203   1.083       .  S
C192        H204   1.079       .  S
C193       C3499   1.484       .  S
C194       C3412   1.465       .  S
C195        C388   1.552       .  S
C196       C1233   1.520       .  S
N207        C212   1.344       .  A
N207        C211   1.345       .  A
N207        H239   1.043       .  S
N208        C215   1.349       .  A
N208        C216   1.344       .  A
N209        C214   1.365       .  A
N209        C213   1.366       .  A
N209        H240   1.040       .  S
N210        C217   1.353       .  A
N210        C218   1.350       .  A
C211        C219   1.387       .  A
C211        C227   1.399       .  A
C212        C228   1.397       .  A
C212        C220   1.386       .  A
C213        C221   1.389       .  A
C213        C230   1.450       .  A
C214        C229   1.449       .  A
C214        C222   1.389       .  A
C215        C227   1.392       .  A
C215        C223   1.377       .  A
C216        C230   1.414       .  A
C216        C224   1.390       .  A
C217        C225   1.379       .  A
C217        C228   1.401       .  A
C218        C226   1.394       .  A
C218        C229   1.422       .  A
C219        C220   1.375       .  A
C219        H231   1.082       .  S
C220        H232   1.082       .  S
C221        C222   1.404       .  A
C221        H233   1.082       .  S
C222        H234   1.082       .  S
C223        C224   1.370       .  A
C223        H235   1.082   1_556  S
C224        H236   1.078       .  S
C225        C226   1.360       .  A
C225        H237   1.083       .  S
C226        H238   1.078       .  S
C227       C3468   1.471       .  S
C228       C3510   1.474       .  S
C229        C337   1.513       .  S
C230        C474   1.526       .  S
N241        C246   1.344       .  A
N241        C245   1.342       .  A
N241        H273   1.040       .  S
N242        C249   1.355       .  A
N242        C250   1.351       .  A
N243        C248   1.368       .  A
N243        C247   1.361       .  A
N243        H274   1.041       .  S
N244        C251   1.341       .  A
N244        C252   1.338       .  A
C245        C253   1.387       .  A
C245        C261   1.398       .  A
C246        C262   1.403       .  A
C246        C254   1.387       .  A
C247        C255   1.390       .  A
C247        C264   1.446       .  A
C248        C263   1.449       .  A
C248        C256   1.389       .  A
C249        C261   1.412       .  A
C249        C257   1.385       .  A
C250        C264   1.413       .  A
C250        C258   1.388       .  A
C251        C259   1.383       .  A
C251        C262   1.391       .  A
C252        C260   1.391       .  A
C252        C263   1.393       .  A
C253        C254   1.381       .  A
C253        H265   1.082       .  S
C254        H266   1.082       .  S
C255        C256   1.406       .  A
C255        H267   1.082       .  S
C256        H268   1.082       .  S
C257        C258   1.366       .  A
C257        H269   1.082       .  S
C258        H270   1.082       .  S
C259        C260   1.369       .  A
C259        H271   1.082       .  S
C260        H272   1.081       .  S
C261       C3457   1.476       .  S
C262       C3401   1.459       .  S
C263       C1943   1.509       .  S
C264        C749   1.508       .  S
O275        C291   1.280       .  A
O275       Zn281   2.086       .  S
C276        O292   1.283       .  A
C276        O289   1.286       .  A
C276       C1515   1.514       .  S
O277        C290   1.276       .  A
O277       Cd284   2.118       .  S
O278        C296   1.300       .  A
O278       Cd287   2.180       .  S
O279        C293   1.287       .  A
O279       Cd283   2.160       .  S
O280        C291   1.283       .  A
O280       Cd283   2.130       .  S
Zn281       O292   2.105       .  S
Zn281       O294   2.115       .  S
Zn281       O286   1.981       .  S
O282        C293   1.284       .  A
O282       Cd287   2.148       .  S
Cd283       O285   2.182       .  S
Cd283       O286   2.031       .  S
Cd284       O288   2.115       .  S
Cd284       O297   2.125       .  S
Cd284       O286   2.134       .  S
O285        C295   1.302       .  A
O286       Cd287   2.024       .  S
Cd287       O289   2.143       .  S
O288        C295   1.272       .  A
C290        O294   1.296       .  A
C290        C511   1.523       .  S
C291       C1065   1.508       .  S
C293       C1993   1.526       .  S
C295        C905   1.532       .  S
C296        O297   1.278       .  A
C296       C1794   1.537       .  S
O298        C314   1.281       .  A
O298       Zn304   2.084       .  S
C299        O315   1.283       .  A
C299        O312   1.285       .  A
C299       C2040   1.535       .  S
O300        C313   1.275       .  A
O300       Cd307   2.130       .  S
O301        C319   1.301       .  A
O301       Cd310   2.179       .  S
O302        C316   1.284       .  A
O302       Cd306   2.131       .  S
O303        C314   1.285       .  A
O303       Cd306   2.189       .  S
Zn304       O315   2.049       .  S
Zn304       O317   2.123       .  S
Zn304       O309   1.937       .  S
O305        C316   1.286       .  A
O305       Cd310   2.139       .  S
Cd306       O308   2.167       .  S
Cd306       O309   2.037       .  S
Cd307       O311   2.127       .  S
Cd307       O320   2.121       .  S
Cd307       O309   2.132       .  S
O308        C318   1.298       .  A
O309       Cd310   2.057       .  S
Cd310       O312   2.211       .  S
O311        C318   1.278       .  A
C313        O317   1.298       .  A
C313        C665   1.532       .  S
C314       C1332   1.537       .  S
C316       C1601   1.508       .  S
C318        C871   1.534       .  S
C319        O320   1.277       .  A
C319       C1795   1.530       .  S
O321        C337   1.276       .  A
O321       Zn327   2.050       .  S
C322        O338   1.273       .  A
C322        O335   1.290       .  A
C322        C802   1.523       .  S
O323        C336   1.281       .  A
O323       Cd330   2.153       .  S
O324        C342   1.310       .  A
O324       Cd333   2.236       .  S
O325        C339   1.288       .  A
O325       Cd329   2.159       .  S
O326        C337   1.281       .  A
O326       Cd329   2.154       .  S
Zn327       O338   2.023       .  S
Zn327       O340   2.080       .  S
Zn327       O332   1.944       .  S
O328        C339   1.293       .  A
O328       Cd333   2.185       .  S
Cd329       O331   2.150       .  S
Cd329       O332   2.045       .  S
Cd330       O334   2.144       .  S
Cd330       O343   2.147       .  S
Cd330       O332   2.141       .  S
O331        C341   1.297       .  A
O332       Cd333   2.052       .  S
Cd333       O335   2.207       .  S
O334        C341   1.278       .  A
C336        O340   1.289       .  A
C336       C1132   1.536       .  S
C339        C631   1.532       .  S
C341       C1407   1.532       .  S
C342        O343   1.280       .  A
C342       C1560   1.556       .  S
O344        C360   1.284       .  A
O344       Zn350   2.115       .  S
C345        O361   1.283       .  A
C345        O358   1.280       .  A
C345       C2147   1.509       .  S
O346        C359   1.270       .  A
O346       Cd353   2.096       .  S
O347        C365   1.296       .  A
O347       Cd356   2.165       .  S
O348        C362   1.281       .  A
O348       Cd352   2.150   1_554  S
O349        C360   1.281       .  A
O349       Cd352   2.110       .  S
Zn350       O361   2.068   1_556  S
Zn350       O363   2.153       .  S
Zn350       O355   1.973   1_556  S
O351        C362   1.286       .  A
O351       Cd356   2.136       .  S
Cd352       O354   2.167       .  S
Cd352       O355   2.034   1_556  S
Cd353       O357   2.091       .  S
Cd353       O366   2.089   1_556  S
Cd353       O355   2.106   1_556  S
O354        C364   1.298       .  A
O355       Cd356   2.026       .  S
Cd356       O358   2.136       .  S
O357        C364   1.273       .  A
C359        O363   1.300       .  A
C360       C1703   1.509       .  S
C362       C1064   1.525       .  S
C364        C803   1.511       .  S
C365        O366   1.272       .  A
C365        C584   1.512       .  S
O367        C383   1.282       .  A
O367       Zn373   2.097   1_455  S
C368        O384   1.282       .  A
C368        O381   1.284       .  A
C368       C1166   1.519       .  S
O369        C382   1.281   1_556  A
O369       Cd376   2.148       .  S
O370        C388   1.298       .  A
O370       Cd379   2.188       .  S
O371        C385   1.284       .  A
O371       Cd375   2.130       .  S
O372        C383   1.282       .  A
O372       Cd375   2.159   1_554  S
Zn373       O384   2.084       .  S
Zn373       O386   2.091       .  S
Zn373       O378   1.960   1_554  S
O374        C385   1.285       .  A
O374       Cd379   2.137   1_455  S
Cd375       O377   2.161       .  S
Cd375       O378   2.035   1_455  S
Cd376       O380   2.140       .  S
Cd376       O389   2.157       .  S
Cd376       O378   2.138       .  S
O377        C387   1.298       .  A
O378       Cd379   2.046       .  S
Cd379       O381   2.159   1_556  S
O380        C387   1.277   1_655  A
C382        O386   1.290       .  A
C382       C1862   1.534       .  S
C383       C1994   1.524       .  S
C385       C1702   1.507       .  S
C387        C973   1.534       .  S
C388        O389   1.284       .  A
O390        C406   1.282       .  A
O390       Zn396   2.084       .  S
C391        O407   1.282       .  A
C391        O404   1.283       .  A
C391        C630   1.514       .  S
O392        C405   1.280       .  A
O392       Cd399   2.166       .  S
O393        C411   1.300       .  A
O393       Cd402   2.170       .  S
O394        C408   1.293       .  A
O394       Cd398   2.211   1_565  S
O395        C406   1.288       .  A
O395       Cd398   2.173       .  S
Zn396       O407   2.083   1_545  S
Zn396       O409   2.144       .  S
Zn396       O401   1.980       .  S
O397        C408   1.282       .  A
O397       Cd402   2.132       .  S
Cd398       O400   2.216       .  S
Cd398       O401   2.054       .  S
Cd399       O403   2.128       .  S
Cd399       O412   2.138       .  S
Cd399       O401   2.145       .  S
O400        C410   1.307       .  A
O401       Cd402   2.030   1_545  S
Cd402       O404   2.148       .  S
O403        C410   1.279       .  A
C405        O409   1.299       .  A
C405       C1333   1.553       .  S
C406        C939   1.522       .  S
C410       C2114   1.533       .  S
C411        O412   1.279   1_565  A
C411       C1669   1.535       .  S
O413        C429   1.276       .  A
O413       Zn419   2.003       .  S
C414        O430   1.281       .  A
C414        O427   1.280       .  A
C414       C1406   1.521       .  S
O415        C428   1.278       .  A
O415       Cd422   2.129       .  S
O416        C434   1.303       .  A
O416       Cd425   2.196       .  S
O417        C431   1.288       .  A
O417       Cd421   2.181       .  S
O418        C429   1.286       .  A
O418       Cd421   2.170       .  S
Zn419       O430   2.085       .  S
Zn419       O432   2.112       .  S
Zn419       O424   1.951       .  S
O420        C431   1.289       .  A
O420       Cd425   2.139       .  S
Cd421       O423   2.230       .  S
Cd421       O424   2.061       .  S
Cd422       O426   2.106       .  S
Cd422       O435   2.103       .  S
Cd422       O424   2.105       .  S
O423        C433   1.308       .  A
O424       Cd425   2.036       .  S
Cd425       O427   2.153       .  S
O426        C433   1.274       .  A
C428        O432   1.289       .  A
C428        C551   1.533       .  S
C429       C1012   1.504       .  S
C431       C1634   1.525       .  S
C433       C1896   1.533       .  S
C434        O435   1.276       .  A
O436        C452   1.279       .  A
O436       Zn442   2.049       .  S
C437        O453   1.279       .  A
C437        O450   1.285       .  A
C437       C1897   1.530       .  S
O438        C451   1.279       .  A
O438       Cd445   2.152       .  S
O439        C457   1.300       .  A
O439       Cd448   2.170       .  S
O440        C454   1.286       .  A
O440       Cd444   2.154   1_655  S
O441        C452   1.285       .  A
O441       Cd444   2.168       .  S
Zn442       O453   2.061   1_455  S
Zn442       O455   2.123       .  S
Zn442       O447   1.948   1_455  S
O443        C454   1.289       .  A
O443       Cd448   2.157       .  S
Cd444       O446   2.170       .  S
Cd444       O447   2.047   1_455  S
Cd445       O449   2.136       .  S
Cd445       O458   2.129   1_455  S
Cd445       O447   2.134   1_455  S
O446        C456   1.298       .  A
O447       Cd448   2.053       .  S
Cd448       O450   2.194       .  S
O449        C456   1.280       .  A
C451        O455   1.295       .  A
C451       C1514   1.547       .  S
C452        C698   1.515       .  S
C456       C2148   1.530       .  S
C457        O458   1.279       .  A
C457       C1167   1.527       .  S
O459        C475   1.275       .  A
O459       Zn465   2.045   1_545  S
C460        O476   1.279       .  A
C460        O473   1.287       .  A
C460       C1201   1.524       .  S
O461        C474   1.276       .  A
O461       Cd468   2.124       .  S
O462        C480   1.305       .  A
O462       Cd471   2.210       .  S
O463        C477   1.291       .  A
O463       Cd467   2.180   1_554  S
O464        C475   1.287       .  A
O464       Cd467   2.197       .  S
Zn465       O476   2.060   1_556  S
Zn465       O478   2.105       .  S
Zn465       O470   1.944       .  S
O466        C477   1.290       .  A
O466       Cd471   2.174   1_545  S
Cd467       O469   2.189       .  S
Cd467       O470   2.052   1_545  S
Cd468       O472   2.121       .  S
Cd468       O481   2.113   1_556  S
Cd468       O470   2.136       .  S
O469        C479   1.304       .  A
O470       Cd471   2.057   1_556  S
Cd471       O473   2.185       .  S
O472        C479   1.275   1_565  A
C474        O478   1.293       .  A
C475       C1475   1.531       .  S
C477       C2080   1.536       .  S
C479        C938   1.531       .  S
C480        O481   1.276       .  A
C480        C585   1.533       .  S
C482       C3359   1.473       .  S
C482        N483   1.358       .  A
C482        N487   1.349       .  A
N483        C484   1.359       .  A
C484       C3342   1.475       .  S
C484        N485   1.362       .  A
N485        C486   1.358       .  A
C486       C3328   1.486       .  S
C486        N487   1.352       .  A
N488        C493   1.343       .  A
N488        C492   1.354       .  A
N488        H520   1.042       .  S
N489        C496   1.347       .  A
N489        C497   1.336       .  A
N490        C495   1.368       .  A
N490        C494   1.368       .  A
N490        H521   1.041       .  S
N491        C498   1.351       .  A
N491        C499   1.355       .  A
C492        C500   1.386       .  A
C492        C508   1.410       .  A
C493        C509   1.405       .  A
C493        C501   1.388       .  A
C494        C502   1.390       .  A
C494        C511   1.453       .  A
C495        C510   1.452       .  A
C495        C503   1.388       .  A
C496        C508   1.396       .  A
C496        C504   1.380       .  A
C497        C511   1.406       .  A
C497        C505   1.393       .  A
C498        C506   1.385       .  A
C498        C509   1.409       .  A
C499        C507   1.390       .  A
C499        C510   1.418       .  A
C500        C501   1.374       .  A
C500        H512   1.082       .  S
C501        H513   1.082       .  S
C502        C503   1.405       .  A
C502        H514   1.082       .  S
C503        H515   1.082       .  S
C504        C505   1.375       .  A
C504        H516   1.083       .  S
C505        H517   1.082       .  S
C506        C507   1.367       .  A
C506        H518   1.082       .  S
C507        H519   1.082       .  S
C508       C3345   1.483       .  S
C509       C3314   1.467       .  S
C522       C3272   1.467       .  S
C522        N523   1.359       .  A
C522        N527   1.359   1_565  A
N523        C524   1.359   1_565  A
C524       C3286   1.470   1_545  S
C524        N525   1.348       .  A
N525        C526   1.351       .  A
C526       C3300   1.463       .  S
C526        N527   1.350       .  A
N528        C533   1.348       .  A
N528        C532   1.337       .  A
N528        H560   1.043       .  S
N529        C536   1.350       .  A
N529        C537   1.356       .  A
N530        C535   1.365       .  A
N530        C534   1.361       .  A
N530        H561   1.040       .  S
N531        C538   1.342       .  A
N531        C539   1.332       .  A
C532        C540   1.389       .  A
C532        C548   1.396       .  A
C533        C549   1.402       .  A
C533        C541   1.386       .  A
C534        C542   1.389       .  A
C534        C551   1.447       .  A
C535        C550   1.445       .  A
C535        C543   1.388       .  A
C536        C548   1.411       .  A
C536        C544   1.383       .  A
C537        C551   1.426       .  A
C537        C545   1.392       .  A
C538        C546   1.374       .  A
C538        C549   1.387       .  A
C539        C547   1.395       .  A
C539        C550   1.401       .  A
C540        C541   1.377       .  A
C540        H552   1.082       .  S
C541        H553   1.082       .  S
C542        C543   1.405       .  A
C542        H554   1.082       .  S
C543        H555   1.082       .  S
C544        C545   1.374       .  A
C544        H556   1.083       .  S
C545        H557   1.080       .  S
C546        C547   1.372       .  A
C546        H558   1.081       .  S
C547        H559   1.080       .  S
C548       C3258   1.466       .  S
C549       C3275   1.471       .  S
C550        C726   1.510       .  S
N562        C567   1.344       .  A
N562        C566   1.346       .  A
N562        H594   1.044       .  S
N563        C570   1.347       .  A
N563        C571   1.343       .  A
N564        C569   1.361       .  A
N564        C568   1.366       .  A
N564        H595   1.041       .  S
N565        C572   1.349       .  A
N565        C573   1.344       .  A
C566        C574   1.385       .  A
C566        C582   1.401       .  A
C567        C583   1.404       .  A
C567        C575   1.388       .  A
C568        C576   1.389       .  A
C568        C585   1.449       .  A
C569        C584   1.448       .  A
C569        C577   1.391       .  A
C570        C582   1.389       .  A
C570        C578   1.376       .  A
C571        C585   1.402       .  A
C571        C579   1.375       .  A
C572        C580   1.381       .  A
C572        C583   1.395       .  A
C573        C581   1.392       .  A
C573        C584   1.412       .  A
C574        C575   1.383       .  A
C574        H586   1.082       .  S
C575        H587   1.082       .  S
C576        C577   1.408       .  A
C576        H588   1.082       .  S
C577        H589   1.082       .  S
C578        C579   1.371       .  A
C578        H590   1.080   1_565  S
C579        H591   1.074       .  S
C580        C581   1.371       .  A
C580        H592   1.083       .  S
C581        H593   1.083       .  S
C582       C3289   1.475       .  S
C583       C3356   1.473       .  S
C596       C3244   1.480       .  S
C596        N597   1.365       .  A
C596        N601   1.356       .  A
N597        C598   1.358   1_565  A
C598       C3230   1.457       .  S
C598        N599   1.347       .  A
N599        C600   1.341   1_545  A
C600       C3219   1.454       .  S
C600        N601   1.352       .  A
C602       C3202   1.454       .  S
C602        N603   1.355       .  A
C602        N607   1.346       .  A
N603        C604   1.360       .  A
C604       C3317   1.476       .  S
C604        N605   1.357       .  A
N605        C606   1.352       .  A
C606       C3261   1.467       .  S
C606        N607   1.344       .  A
N608        C613   1.340       .  A
N608        C612   1.343       .  A
N608        H640   1.036       .  S
N609        C616   1.352       .  A
N609        C617   1.345       .  A
N610        C615   1.366       .  A
N610        C614   1.372       .  A
N610        H641   1.039       .  S
N611        C618   1.354       .  A
N611        C619   1.350       .  A
C612        C620   1.389       .  A
C612        C628   1.403       .  A
C613        C629   1.396       .  A
C613        C621   1.385       .  A
C614        C622   1.389       .  A
C614        C631   1.455       .  A
C615        C630   1.455       .  A
C615        C623   1.390       .  A
C616        C628   1.402       .  A
C616        C624   1.378       .  A
C617        C631   1.400       .  A
C617        C625   1.374       .  A
C618        C626   1.387       .  A
C618        C629   1.412       .  A
C619        C627   1.390       .  A
C619        C630   1.410       .  A
C620        C621   1.375       .  A
C620        H632   1.081       .  S
C621        H633   1.083       .  S
C622        C623   1.408       .  A
C622        H634   1.082       .  S
C623        H635   1.082       .  S
C624        C625   1.364       .  A
C624        H636   1.081       .  S
C625        H637   1.073       .  S
C626        C627   1.358       .  A
C626        H638   1.082       .  S
C627        H639   1.082       .  S
C628       C3205   1.470       .  S
C629       C3216   1.466       .  S
N642        C647   1.343       .  A
N642        C646   1.346       .  A
N642        H674   1.042       .  S
N643        C650   1.342       .  A
N643        C651   1.340       .  A
N644        C649   1.360       .  A
N644        C648   1.370       .  A
N644        H675   1.040       .  S
N645        C652   1.356       .  A
N645        C653   1.353       .  A
C646        C654   1.386       .  A
C646        C662   1.402       .  A
C647        C663   1.404       .  A
C647        C655   1.388       .  A
C648        C656   1.390       .  A
C648        C665   1.454       .  A
C649        C664   1.447       .  A
C649        C657   1.389       .  A
C650        C662   1.394       .  A
C650        C658   1.378       .  A
C651        C665   1.398       .  A
C651        C659   1.388       .  A
C652        C660   1.385       .  A
C652        C663   1.414       .  A
C653        C661   1.391       .  A
C653        C664   1.417       .  A
C654        C655   1.382       .  A
C654        H666   1.082       .  S
C655        H667   1.082       .  S
C656        C657   1.408       .  A
C656        H668   1.082       .  S
C657        H669   1.082       .  S
C658        C659   1.367       .  A
C658        H670   1.074       .  S
C659        H671   1.083       .  S
C660        C661   1.361       .  A
C660        H672   1.081       .  S
C661        H673   1.082       .  S
C662       C3233   1.468       .  S
C663       C3303   1.484       .  S
N676        C681   1.348       .  A
N676        C680   1.346       .  A
N676        H708   1.042       .  S
N677        C684   1.347       .  A
N677        C685   1.345       .  A
N678        C683   1.365       .  A
N678        C682   1.373       .  A
N678        H709   1.039       .  S
N679        C686   1.359       .  A
N679        C687   1.354       .  A
C680        C688   1.388       .  A
C680        C696   1.404       .  A
C681        C697   1.401       .  A
C681        C689   1.386       .  A
C682        C690   1.388       .  A
C682        C699   1.456       .  A
C683        C698   1.453       .  A
C683        C691   1.390       .  A
C684        C696   1.391       .  A
C684        C692   1.379       .  A
C685        C699   1.413       .  A
C685        C693   1.390       .  A
C686        C694   1.379       .  A
C686        C697   1.407       .  A
C687        C695   1.397       .  A
C687        C698   1.428       .  A
C688        C689   1.373       .  A
C688        H700   1.082       .  S
C689        H701   1.082       .  S
C690        C691   1.405       .  A
C690        H702   1.082   1_455  S
C691        H703   1.082   1_455  S
C692        C693   1.370       .  A
C692        H704   1.082       .  S
C693        H705   1.081       .  S
C694        C695   1.358       .  A
C694        H706   1.082       .  S
C695        H707   1.080       .  S
C696       C3247   1.471       .  S
C697       C3331   1.481       .  S
C699       C1250   1.538       .  S
O710        C726   1.283       .  A
O710       Zn716   2.129   1_565  S
C711        O727   1.282       .  A
C711        O724   1.287       .  A
C711       C1931   1.523       .  S
O712        C725   1.276       .  A
O712       Cd719   2.125       .  S
O713        C731   1.301       .  A
O713       Cd722   2.177       .  S
O714        C728   1.276       .  A
O714       Cd718   2.101       .  S
O715        C726   1.272       .  A
O715       Cd718   2.076       .  S
Zn716       O727   2.077       .  S
Zn716       O729   2.111       .  S
Zn716       O721   1.972       .  S
O717        C728   1.285       .  A
O717       Cd722   2.149   1_565  S
Cd718       O720   2.148       .  S
Cd718       O721   2.000   1_565  S
Cd719       O723   2.123       .  S
Cd719       O732   2.131       .  S
Cd719       O721   2.130       .  S
O720        C730   1.296       .  A
O721       Cd722   2.031       .  S
Cd722       O724   2.172       .  S
O723        C730   1.277   1_545  A
C725        O729   1.296       .  A
C725       C1298   1.532       .  S
C730       C1200   1.521       .  S
C731        O732   1.277       .  A
C731       C2180   1.534       .  S
O733        C749   1.279       .  A
O733       Zn739   2.075       .  S
C734        O750   1.280       .  A
C734        O747   1.282       .  A
C734       C1863   1.524       .  S
O735        C748   1.279       .  A
O735       Cd742   2.151       .  S
O736        C754   1.299       .  A
O736       Cd745   2.165   1_554  S
O737        C751   1.283       .  A
O737       Cd741   2.119       .  S
O738        C749   1.282       .  A
O738       Cd741   2.134       .  S
Zn739       O750   2.055   1_556  S
Zn739       O752   2.123   1_556  S
Zn739       O744   1.961       .  S
O740        C751   1.283       .  A
O740       Cd745   2.146       .  S
Cd741       O743   2.165       .  S
Cd741       O744   2.016       .  S
Cd742       O746   2.140   1_554  S
Cd742       O755   2.110       .  S
Cd742       O744   2.118   1_554  S
O743        C753   1.297       .  A
O744       Cd745   2.055       .  S
Cd745       O747   2.171   1_556  S
O746        C753   1.280       .  A
C748        O752   1.291       .  A
C748       C2179   1.547       .  S
C751        C836   1.509       .  S
C753       C1474   1.532       .  S
C754        O755   1.278       .  A
C754       C1098   1.514       .  S
C756       C3163   1.467       .  S
C756        N757   1.354       .  A
C756        N761   1.352       .  A
N757        C758   1.351       .  A
C758       C3188   1.463       .  S
C758        N759   1.353       .  A
N759        C760   1.351       .  A
C760       C3174   1.467       .  S
C760        N761   1.350       .  A
C762       C3118   1.472       .  S
C762        N763   1.356       .  A
C762        N767   1.355       .  A
N763        C764   1.350       .  A
C764       C3132   1.453   1_556  S
C764        N765   1.353   1_556  A
N765        C766   1.350   1_554  A
C766       C3149   1.468       .  S
C766        N767   1.354       .  A
C768       C3104   1.470       .  S
C768        N769   1.352       .  A
C768        N773   1.363       .  A
N769        C770   1.352       .  A
C770       C3090   1.466       .  S
C770        N771   1.349       .  A
N771        C772   1.356       .  A
C772       C3076   1.475       .  S
C772        N773   1.360       .  A
C774       C3048   1.481   1_554  S
C774        N775   1.355       .  A
C774        N779   1.358       .  A
N775        C776   1.350       .  A
C776       C3062   1.480       .  S
C776        N777   1.356       .  A
N777        C778   1.355       .  A
C778       C3034   1.484       .  S
C778        N779   1.361       .  A
N780        C785   1.343       .  A
N780        C784   1.352       .  A
N780        H812   1.041       .  S
N781        C788   1.345       .  A
N781        C789   1.337       .  A
N782        C787   1.365       .  A
N782        C786   1.366       .  A
N782        H813   1.039       .  S
N783        C790   1.354       .  A
N783        C791   1.357       .  A
C784        C792   1.386       .  A
C784        C800   1.407       .  A
C785        C801   1.402       .  A
C785        C793   1.387       .  A
C786        C794   1.389       .  A
C786        C803   1.449       .  A
C787        C802   1.448       .  A
C787        C795   1.388       .  A
C788        C800   1.393       .  A
C788        C796   1.381   1_556  A
C789        C803   1.402       .  A
C789        C797   1.391       .  A
C790        C798   1.385       .  A
C790        C801   1.412       .  A
C791        C799   1.391       .  A
C791        C802   1.424       .  A
C792        C793   1.376       .  A
C792        H804   1.082       .  S
C793        H805   1.082       .  S
C794        C795   1.405       .  A
C794        H806   1.082       .  S
C795        H807   1.082       .  S
C796        C797   1.371   1_554  A
C796        H808   1.083       .  S
C797        H809   1.083   1_556  S
C798        C799   1.362       .  A
C798        H810   1.082       .  S
C799        H811   1.082       .  S
C800       C3037   1.484       .  S
C801       C3093   1.467       .  S
N814        C819   1.340       .  A
N814        C818   1.346       .  A
N814        H846   1.039       .  S
N815        C822   1.350       .  A
N815        C823   1.345       .  A
N816        C821   1.365       .  A
N816        C820   1.366       .  A
N816        H847   1.042       .  S
N817        C824   1.350       .  A
N817        C825   1.348       .  A
C818        C826   1.385       .  A
C818        C834   1.403       .  A
C819        C835   1.401       .  A
C819        C827   1.387       .  A
C820        C828   1.391       .  A
C820        C837   1.451       .  A
C821        C836   1.448       .  A
C821        C829   1.389       .  A
C822        C834   1.406       .  A
C822        C830   1.385       .  A
C823        C837   1.405       .  A
C823        C831   1.389       .  A
C824        C832   1.388       .  A
C824        C835   1.410       .  A
C825        C833   1.386       .  A
C825        C836   1.402       .  A
C826        C827   1.380       .  A
C826        H838   1.082       .  S
C827        H839   1.082       .  S
C828        C829   1.406       .  A
C828        H840   1.081       .  S
C829        H841   1.082       .  S
C830        C831   1.371       .  A
C830        H842   1.082       .  S
C831        H843   1.083       .  S
C832        C833   1.364       .  A
C832        H844   1.081       .  S
C833        H845   1.083       .  S
C834       C3079   1.481       .  S
C835       C3121   1.471       .  S
C837       C1232   1.529       .  S
N848        C853   1.343       .  A
N848        C852   1.339       .  A
N848        H880   1.044       .  S
N849        C856   1.348       .  A
N849        C857   1.347       .  A
N850        C855   1.370       .  A
N850        C854   1.367       .  A
N850        H881   1.042       .  S
N851        C858   1.346       .  A
N851        C859   1.336       .  A
C852        C860   1.387       .  A
C852        C868   1.393       .  A
C853        C869   1.403       .  A
C853        C861   1.388       .  A
C854        C862   1.391       .  A
C854        C871   1.458       .  A
C855        C870   1.457       .  A
C855        C863   1.390       .  A
C856        C868   1.396       .  A
C856        C864   1.380       .  A
C857        C871   1.415       .  A
C857        C865   1.394       .  A
C858        C866   1.376       .  A
C858        C869   1.393       .  A
C859        C867   1.396       .  A
C859        C870   1.408       .  A
C860        C861   1.378       .  A
C860        H872   1.082       .  S
C861        H873   1.082       .  S
C862        C863   1.411       .  A
C862        H874   1.082       .  S
C863        H875   1.082       .  S
C864        C865   1.369       .  A
C864        H876   1.082       .  S
C865        H877   1.082       .  S
C866        C867   1.376       .  A
C866        H878   1.082       .  S
C867        H879   1.081       .  S
C868       C3177   1.461       .  S
C869       C3107   1.476       .  S
N882        C887   1.339       .  A
N882        C886   1.351       .  A
N882        H914   1.043       .  S
N883        C890   1.339       .  A
N883        C891   1.330       .  A
N884        C889   1.365       .  A
N884        C888   1.370       .  A
N884        H915   1.042       .  S
N885        C892   1.353       .  A
N885        C893   1.357       .  A
C886        C894   1.388       .  A
C886        C902   1.412       .  A
C887        C903   1.396       .  A
C887        C895   1.386       .  A
C888        C896   1.391       .  A
C888        C905   1.457       .  A
C889        C904   1.454       .  A
C889        C897   1.390       .  A
C890        C902   1.392       .  A
C890        C898   1.383       .  A
C891        C905   1.392       .  A
C891        C899   1.391       .  A
C892        C900   1.388       .  A
C892        C903   1.416       .  A
C893        C901   1.387       .  A
C893        C904   1.416       .  A
C894        C895   1.380       .  A
C894        H906   1.082       .  S
C895        H907   1.082       .  S
C896        C897   1.411       .  A
C896        H908   1.082       .  S
C897        H909   1.082       .  S
C898        C899   1.377       .  A
C898        H910   1.082       .  S
C899        H911   1.082       .  S
C900        C901   1.369       .  A
C900        H912   1.082       .  S
C901        H913   1.082       .  S
C902       C3065   1.475       .  S
C903       C3135   1.466       .  S
N916        C921   1.349       .  A
N916        C920   1.338       .  A
N916        H948   1.039       .  S
N917        C924   1.352       .  A
N917        C925   1.353       .  A
N918        C923   1.371       .  A
N918        C922   1.364       .  A
N918        H949   1.038       .  S
N919        C926   1.341       .  A
N919        C927   1.332       .  A
C920        C928   1.389       .  A
C920        C936   1.397       .  A
C921        C937   1.403       .  A
C921        C929   1.386       .  A
C922        C930   1.390   1_545  A
C922        C939   1.454       .  A
C923        C938   1.457       .  A
C923        C931   1.389   1_545  A
C924        C936   1.408       .  A
C924        C932   1.383       .  A
C925        C939   1.418       .  A
C925        C933   1.391       .  A
C926        C934   1.372       .  A
C926        C937   1.386       .  A
C927        C935   1.387       .  A
C927        C938   1.393       .  A
C928        C929   1.374       .  A
C928        H940   1.082       .  S
C929        H941   1.082       .  S
C930        C931   1.409       .  A
C930        H942   1.082       .  S
C931        H943   1.082       .  S
C932        C933   1.361       .  A
C932        H944   1.083       .  S
C933        H945   1.081       .  S
C934        C935   1.372       .  A
C934        H946   1.077   1_556  S
C935        H947   1.081       .  S
C936       C3160   1.457       .  S
C937       C3146   1.467       .  S
N950        C955   1.339       .  A
N950        C954   1.348       .  A
N950        H982   1.042       .  S
N951        C958   1.343       .  A
N951        C959   1.336       .  A
N952        C957   1.367       .  A
N952        C956   1.373       .  A
N952        H983   1.041       .  S
N953        C960   1.353       .  A
N953        C961   1.354       .  A
C954        C962   1.386       .  A
C954        C970   1.402       .  A
C955        C971   1.397       .  A
C955        C963   1.388       .  A
C956        C964   1.389   1_455  A
C956        C973   1.458       .  A
C957        C972   1.457       .  A
C957        C965   1.390       .  A
C958        C970   1.392       .  A
C958        C966   1.377       .  A
C959        C973   1.400       .  A
C959        C967   1.392       .  A
C960        C968   1.384       .  A
C960        C971   1.410       .  A
C961        C969   1.391       .  A
C961        C972   1.418       .  A
C962        C963   1.380       .  A
C962        H974   1.082       .  S
C963        H975   1.082       .  S
C964        C965   1.409   1_655  A
C964        H976   1.082       .  S
C965        H977   1.082   1_455  S
C966        C967   1.370       .  A
C966        H978   1.079       .  S
C967        H979   1.082       .  S
C968        C969   1.368       .  A
C968        H980   1.082       .  S
C969        H981   1.082       .  S
C970       C3051   1.471       .  S
C971       C3191   1.466       .  S
C972       C1958   1.528       .  S
C984       C2992   1.492       .  S
C984        N985   1.358       .  A
C984        N989   1.358       .  A
N985        C986   1.353       .  A
C986       C3006   1.470       .  S
C986        N987   1.355       .  A
N987        C988   1.353       .  A
C988       C3023   1.485       .  S
C988        N989   1.361       .  A
N990        C995   1.355       .  A
N990        C994   1.346       .  A
N990       H1022   1.030       .  S
N991        C998   1.351       .  A
N991        C999   1.358       .  A
N992        C997   1.358       .  A
N992        C996   1.354       .  A
N992       H1023   1.025       .  S
N993       C1000   1.345       .  A
N993       C1001   1.344       .  A
C994       C1002   1.393       .  A
C994       C1010   1.416       .  A
C995       C1011   1.408       .  A
C995       C1003   1.380       .  A
C996       C1004   1.393       .  A
C996       C1013   1.446       .  A
C997       C1012   1.437       .  A
C997       C1005   1.385       .  A
C998       C1010   1.422       .  A
C998       C1006   1.387       .  A
C999       C1013   1.433       .  A
C999       C1007   1.389       .  A
C1000      C1008   1.387       .  A
C1000      C1011   1.396       .  A
C1001      C1009   1.385       .  A
C1001      C1012   1.402       .  A
C1002      C1003   1.376       .  A
C1002      H1014   1.082       .  S
C1003      H1015   1.082       .  S
C1004      C1005   1.407       .  A
C1004      H1016   1.082       .  S
C1005      H1017   1.082       .  S
C1006      C1007   1.369       .  A
C1006      H1018   1.082       .  S
C1007      H1019   1.081       .  S
C1008      C1009   1.373       .  A
C1008      H1020   1.083       .  S
C1009      H1021   1.082       .  S
C1010      C2978   1.471       .  S
C1011      C2995   1.480       .  S
C1024      C2967   1.482   1_554  S
C1024      N1025   1.363       .  A
C1024      N1029   1.360       .  A
N1025      C1026   1.363       .  A
C1026      C2939   1.487       .  S
C1026      N1027   1.353       .  A
N1027      C1028   1.349       .  A
C1028      C2953   1.464       .  S
C1028      N1029   1.351       .  A
C1030      C2894   1.454       .  S
C1030      N1031   1.356       .  A
C1030      N1035   1.345       .  A
N1031      C1032   1.357       .  A
C1032      C2922   1.477   1_554  S
C1032      N1033   1.359       .  A
N1033      C1034   1.354       .  A
C1034      C2908   1.458       .  S
C1034      N1035   1.350       .  A
C1036      C2880   1.478       .  S
C1036      N1037   1.356       .  A
C1036      N1041   1.364       .  A
N1037      C1038   1.349       .  A
C1038      C2981   1.473       .  S
C1038      N1039   1.348       .  A
N1039      C1040   1.353       .  A
C1040      C2866   1.474       .  S
C1040      N1041   1.359       .  A
N1042      C1047   1.348       .  A
N1042      C1046   1.347       .  A
N1042      H1074   1.041       .  S
N1043      C1050   1.356       .  A
N1043      C1051   1.351       .  A
N1044      C1049   1.372       .  A
N1044      C1048   1.359       .  A
N1044      H1075   1.040       .  S
N1045      C1052   1.340       .  A
N1045      C1053   1.338       .  A
C1046      C1054   1.386       .  A
C1046      C1062   1.403       .  A
C1047      C1063   1.410       .  A
C1047      C1055   1.388       .  A
C1048      C1056   1.389       .  A
C1048      C1065   1.445       .  A
C1049      C1064   1.453       .  A
C1049      C1057   1.389       .  A
C1050      C1062   1.408       .  A
C1050      C1058   1.381       .  A
C1051      C1065   1.418       .  A
C1051      C1059   1.393       .  A
C1052      C1060   1.382       .  A
C1052      C1063   1.390       .  A
C1053      C1061   1.390       .  A
C1053      C1064   1.398       .  A
C1054      C1055   1.375       .  A
C1054      H1066   1.082       .  S
C1055      H1067   1.082       .  S
C1056      C1057   1.405       .  A
C1056      H1068   1.082       .  S
C1057      H1069   1.082       .  S
C1058      C1059   1.363       .  A
C1058      H1070   1.082       .  S
C1059      H1071   1.081       .  S
C1060      C1061   1.372       .  A
C1060      H1072   1.082       .  S
C1061      H1073   1.081       .  S
C1062      C2869   1.480       .  S
C1063      C2897   1.465       .  S
N1076      C1081   1.350       .  A
N1076      C1080   1.344       .  A
N1076      H1108   1.041       .  S
N1077      C1084   1.349       .  A
N1077      C1085   1.351       .  A
N1078      C1083   1.365       .  A
N1078      C1082   1.367       .  A
N1078      H1109   1.041       .  S
N1079      C1086   1.349       .  A
N1079      C1087   1.340       .  A
C1080      C1088   1.385       .  A
C1080      C1096   1.399       .  A
C1081      C1097   1.412       .  A
C1081      C1089   1.391       .  A
C1082      C1090   1.389       .  A
C1082      C1099   1.452       .  A
C1083      C1098   1.450       .  A
C1083      C1091   1.390       .  A
C1084      C1096   1.392       .  A
C1084      C1092   1.376       .  A
C1085      C1099   1.419       .  A
C1085      C1093   1.391       .  A
C1086      C1094   1.379       .  A
C1086      C1097   1.394       .  A
C1087      C1095   1.393       .  A
C1087      C1098   1.408       .  A
C1088      C1089   1.370       .  A
C1088      H1100   1.082       .  S
C1089      H1101   1.080       .  S
C1090      C1091   1.406       .  A
C1090      H1102   1.082       .  S
C1091      H1103   1.082       .  S
C1092      C1093   1.366       .  A
C1092      H1104   1.082       .  S
C1093      H1105   1.080       .  S
C1094      C1095   1.371       .  A
C1094      H1106   1.083       .  S
C1095      H1107   1.083       .  S
C1096      C2883   1.467       .  S
C1097      C2936   1.483       .  S
N1110      C1115   1.342       .  A
N1110      C1114   1.346       .  A
N1110      H1142   1.040       .  S
N1111      C1118   1.354       .  A
N1111      C1119   1.347       .  A
N1112      C1117   1.368       .  A
N1112      C1116   1.361       .  A
N1112      H1143   1.041       .  S
N1113      C1120   1.353       .  A
N1113      C1121   1.352       .  A
C1114      C1122   1.388       .  A
C1114      C1130   1.408       .  A
C1115      C1131   1.398       .  A
C1115      C1123   1.385       .  A
C1116      C1124   1.388       .  A
C1116      C1133   1.441       .  A
C1117      C1132   1.447       .  A
C1117      C1125   1.390       .  A
C1118      C1130   1.413       .  A
C1118      C1126   1.386       .  A
C1119      C1133   1.407       .  A
C1119      C1127   1.388       .  A
C1120      C1128   1.385       .  A
C1120      C1131   1.409       .  A
C1121      C1129   1.384       .  A
C1121      C1132   1.412       .  A
C1122      C1123   1.381       .  A
C1122      H1134   1.082       .  S
C1123      H1135   1.082       .  S
C1124      C1125   1.401       .  A
C1124      H1136   1.082       .  S
C1125      H1137   1.081       .  S
C1126      C1127   1.369       .  A
C1126      H1138   1.081       .  S
C1127      H1139   1.082       .  S
C1128      C1129   1.363       .  A
C1128      H1140   1.082       .  S
C1129      H1141   1.075       .  S
C1130      C2964   1.490       .  S
C1131      C2925   1.473       .  S
C1133      C1230   1.497       .  S
N1144      C1149   1.345       .  A
N1144      C1148   1.350       .  A
N1144      H1176   1.042       .  S
N1145      C1152   1.343       .  A
N1145      C1153   1.338       .  A
N1146      C1151   1.363       .  A
N1146      C1150   1.371       .  A
N1146      H1177   1.040       .  S
N1147      C1154   1.355       .  A
N1147      C1155   1.355       .  A
C1148      C1156   1.388       .  A
C1148      C1164   1.411       .  A
C1149      C1165   1.400       .  A
C1149      C1157   1.384       .  A
C1150      C1158   1.389       .  A
C1150      C1167   1.454       .  A
C1151      C1166   1.452       .  A
C1151      C1159   1.390       .  A
C1152      C1164   1.396       .  A
C1152      C1160   1.384       .  A
C1153      C1167   1.401       .  A
C1153      C1161   1.391       .  A
C1154      C1162   1.384       .  A
C1154      C1165   1.413       .  A
C1155      C1163   1.391       .  A
C1155      C1166   1.420       .  A
C1156      C1157   1.378       .  A
C1156      H1168   1.082       .  S
C1157      H1169   1.082       .  S
C1158      C1159   1.407       .  A
C1158      H1170   1.082   1_655  S
C1159      H1171   1.082       .  S
C1160      C1161   1.372       .  A
C1160      H1172   1.083       .  S
C1161      H1173   1.083       .  S
C1162      C1163   1.363       .  A
C1162      H1174   1.082       .  S
C1163      H1175   1.082       .  S
C1164      C3009   1.478       .  S
C1165      C2950   1.479       .  S
N1178      C1183   1.353       .  A
N1178      C1182   1.342       .  A
N1178      H1210   1.039       .  S
N1179      C1186   1.357       .  A
N1179      C1187   1.359       .  A
N1180      C1185   1.368       .  A
N1180      C1184   1.363       .  A
N1180      H1211   1.038       .  S
N1181      C1188   1.344       .  A
N1181      C1189   1.337       .  A
C1182      C1190   1.390       .  A
C1182      C1198   1.403       .  A
C1183      C1199   1.405       .  A
C1183      C1191   1.384       .  A
C1184      C1192   1.389       .  A
C1184      C1201   1.448       .  A
C1185      C1200   1.451       .  A
C1185      C1193   1.389       .  A
C1186      C1198   1.418       .  A
C1186      C1194   1.386       .  A
C1187      C1201   1.423       .  A
C1187      C1195   1.386       .  A
C1188      C1196   1.379       .  A
C1188      C1199   1.389       .  A
C1189      C1197   1.392       .  A
C1189      C1200   1.405       .  A
C1190      C1191   1.371       .  A
C1190      H1202   1.082       .  S
C1191      H1203   1.083       .  S
C1192      C1193   1.405       .  A
C1192      H1204   1.082       .  S
C1193      H1205   1.082   1_565  S
C1194      C1195   1.362       .  A
C1194      H1206   1.082       .  S
C1195      H1207   1.082       .  S
C1196      C1197   1.373       .  A
C1196      H1208   1.083       .  S
C1197      H1209   1.082       .  S
C1198      C2911   1.466       .  S
C1199      C3020   1.484       .  S
O1212      C1228   1.288       .  A
O1212     Zn1218   2.170       .  S
C1213      O1229   1.295       .  A
C1213      O1226   1.286       .  A
C1213      C1635   1.541       .  S
O1214      C1227   1.276       .  A
O1214     Cd1221   2.117       .  S
O1215      C1233   1.298       .  A
O1215     Cd1224   2.155       .  S
O1216      C1230   1.275       .  A
O1216     Cd1220   2.089       .  S
O1217      C1228   1.278       .  A
O1217     Cd1220   2.093       .  S
Zn1218     O1229   2.176       .  S
Zn1218     O1231   2.173       .  S
Zn1218     O1223   2.005       .  S
O1219      C1230   1.280       .  A
O1219     Cd1224   2.129       .  S
Cd1220     O1222   2.117       .  S
Cd1220     O1223   1.995       .  S
Cd1221     O1225   2.135       .  S
Cd1221     O1234   2.116       .  S
Cd1221     O1223   2.140       .  S
O1222      C1232   1.289       .  A
O1223     Cd1224   2.030       .  S
Cd1224     O1226   2.160       .  S
O1225      C1232   1.276       .  A
C1227      O1231   1.306       .  A
C1227      C1828   1.533       .  S
C1228      C1372   1.527       .  S
C1233      O1234   1.275       .  A
O1235      C1251   1.281       .  A
O1235     Zn1241   2.068   1_545  S
C1236      O1252   1.278       .  A
C1236      O1249   1.287       .  A
C1236      C1668   1.514       .  S
O1237      C1250   1.283   1_655  A
O1237     Cd1244   2.160       .  S
O1238      C1256   1.301       .  A
O1238     Cd1247   2.198       .  S
O1239      C1253   1.287       .  A
O1239     Cd1243   2.172       .  S
O1240      C1251   1.286       .  A
O1240     Cd1243   2.171   1_455  S
Zn1241     O1252   2.071       .  S
Zn1241     O1254   2.127       .  S
Zn1241     O1246   1.969   1_465  S
O1242      C1253   1.287       .  A
O1242     Cd1247   2.155   1_545  S
Cd1243     O1245   2.180       .  S
Cd1243     O1246   2.056       .  S
Cd1244     O1248   2.134       .  S
Cd1244     O1257   2.148       .  S
Cd1244     O1246   2.127   1_565  S
O1245      C1255   1.300       .  A
O1246     Cd1247   2.043   1_545  S
Cd1247     O1249   2.158   1_655  S
O1248      C1255   1.280   1_565  A
C1250      O1254   1.296       .  A
C1251      C2039   1.522       .  S
C1253      C1441   1.530       .  S
C1255      C1930   1.530       .  S
C1256      O1257   1.281       .  A
C1258      C2824   1.450       .  S
C1258      N1259   1.349       .  A
C1258      N1263   1.353   1_545  A
N1259      C1260   1.355   1_545  A
C1260      C2838   1.472   1_565  S
C1260      N1261   1.355       .  A
N1261      C1262   1.357       .  A
C1262      C2855   1.475       .  S
C1262      N1263   1.353       .  A
C1264      C2810   1.462       .  S
C1264      N1265   1.356       .  A
C1264      N1269   1.350       .  A
N1265      C1266   1.357       .  A
C1266      C2799   1.470   1_545  S
C1266      N1267   1.353       .  A
N1267      C1268   1.351       .  A
C1268      C2782   1.459       .  S
C1268      N1269   1.346       .  A
C1270      C2768   1.482       .  S
C1270      N1271   1.349       .  A
C1270      N1275   1.358       .  A
N1271      C1272   1.348       .  A
C1272      C2740   1.479       .  S
C1272      N1273   1.353       .  A
N1273      C1274   1.358       .  A
C1274      C2754   1.466       .  S
C1274      N1275   1.358       .  A
N1276      C1281   1.340       .  A
N1276      C1280   1.344       .  A
N1276      H1308   1.040       .  S
N1277      C1284   1.351       .  A
N1277      C1285   1.347       .  A
N1278      C1283   1.368       .  A
N1278      C1282   1.367       .  A
N1278      H1309   1.042       .  S
N1279      C1286   1.346       .  A
N1279      C1287   1.343       .  A
C1280      C1288   1.386       .  A
C1280      C1296   1.402       .  A
C1281      C1297   1.399       .  A
C1281      C1289   1.386       .  A
C1282      C1290   1.390       .  A
C1282      C1299   1.453       .  A
C1283      C1298   1.456       .  A
C1283      C1291   1.391       .  A
C1284      C1296   1.407       .  A
C1284      C1292   1.385       .  A
C1285      C1299   1.409       .  A
C1285      C1293   1.389       .  A
C1286      C1294   1.385       .  A
C1286      C1297   1.401       .  A
C1287      C1295   1.388       .  A
C1287      C1298   1.402       .  A
C1288      C1289   1.381       .  A
C1288      H1300   1.082       .  S
C1289      H1301   1.082       .  S
C1290      C1291   1.408       .  A
C1290      H1302   1.081       .  S
C1291      H1303   1.081       .  S
C1292      C1293   1.369       .  A
C1292      H1304   1.082       .  S
C1293      H1305   1.083       .  S
C1294      C1295   1.371       .  A
C1294      H1306   1.082       .  S
C1295      H1307   1.083       .  S
C1296      C2757   1.480       .  S
C1297      C2785   1.462       .  S
N1310      C1315   1.339       .  A
N1310      C1314   1.342       .  A
N1310      H1342   1.043       .  S
N1311      C1318   1.346       .  A
N1311      C1319   1.346       .  A
N1312      C1317   1.373       .  A
N1312      C1316   1.375       .  A
N1312      H1343   1.041       .  S
N1313      C1320   1.352       .  A
N1313      C1321   1.348       .  A
C1314      C1322   1.386       .  A
C1314      C1330   1.395       .  A
C1315      C1331   1.396       .  A
C1315      C1323   1.388       .  A
C1316      C1324   1.390       .  A
C1316      C1333   1.468       .  A
C1317      C1332   1.467       .  A
C1317      C1325   1.391       .  A
C1318      C1330   1.395       .  A
C1318      C1326   1.380       .  A
C1319      C1333   1.411       .  A
C1319      C1327   1.392       .  A
C1320      C1328   1.378       .  A
C1320      C1331   1.402       .  A
C1321      C1329   1.395       .  A
C1321      C1332   1.417       .  A
C1322      C1323   1.382       .  A
C1322      H1334   1.082       .  S
C1323      H1335   1.082       .  S
C1324      C1325   1.412       .  A
C1324      H1336   1.082       .  S
C1325      H1337   1.082       .  S
C1326      C1327   1.369       .  A
C1326      H1338   1.083       .  S
C1327      H1339   1.082       .  S
C1328      C1329   1.364       .  A
C1328      H1340   1.083       .  S
C1329      H1341   1.077       .  S
C1330      C2827   1.468       .  S
C1331      C2743   1.466       .  S
C1344      C2712   1.473       .  S
C1344      N1345   1.356       .  A
C1344      N1349   1.359       .  A
N1345      C1346   1.355       .  A
C1346      C2726   1.462       .  S
C1346      N1347   1.349       .  A
N1347      C1348   1.353       .  A
C1348      C2698   1.477       .  S
C1348      N1349   1.357       .  A
N1350      C1355   1.342       .  A
N1350      C1354   1.350       .  A
N1350      H1382   1.043       .  S
N1351      C1358   1.344       .  A
N1351      C1359   1.338       .  A
N1352      C1357   1.364       .  A
N1352      C1356   1.372       .  A
N1352      H1383   1.037       .  S
N1353      C1360   1.358       .  A
N1353      C1361   1.358       .  A
C1354      C1362   1.386       .  A
C1354      C1370   1.402       .  A
C1355      C1371   1.399       .  A
C1355      C1363   1.389       .  A
C1356      C1364   1.389       .  A
C1356      C1373   1.459       .  A
C1357      C1372   1.456       .  A
C1357      C1365   1.391       .  A
C1358      C1370   1.382       .  A
C1358      C1366   1.377       .  A
C1359      C1373   1.402       .  A
C1359      C1367   1.386       .  A
C1360      C1368   1.382       .  A
C1360      C1371   1.414       .  A
C1361      C1369   1.395       .  A
C1361      C1372   1.434       .  A
C1362      C1363   1.376       .  A
C1362      H1374   1.082       .  S
C1363      H1375   1.082       .  S
C1364      C1365   1.409       .  A
C1364      H1376   1.082       .  S
C1365      H1377   1.082       .  S
C1366      C1367   1.367       .  A
C1366      H1378   1.083       .  S
C1367      H1379   1.082       .  S
C1368      C1369   1.363       .  A
C1368      H1380   1.083       .  S
C1369      H1381   1.081       .  S
C1370      C2771   1.474       .  S
C1371      C2701   1.471       .  S
N1384      C1389   1.340       .  A
N1384      C1388   1.349       .  A
N1384      H1416   1.042       .  S
N1385      C1392   1.343       .  A
N1385      C1393   1.339       .  A
N1386      C1391   1.364       .  A
N1386      C1390   1.370       .  A
N1386      H1417   1.041       .  S
N1387      C1394   1.353       .  A
N1387      C1395   1.353       .  A
C1388      C1396   1.385       .  A
C1388      C1404   1.402       .  A
C1389      C1405   1.399       .  A
C1389      C1397   1.389       .  A
C1390      C1398   1.389       .  A
C1390      C1407   1.454       .  A
C1391      C1406   1.454       .  A
C1391      C1399   1.391       .  A
C1392      C1404   1.389       .  A
C1392      C1400   1.373       .  A
C1393      C1407   1.401       .  A
C1393      C1401   1.394       .  A
C1394      C1402   1.382       .  A
C1394      C1405   1.407       .  A
C1395      C1403   1.392       .  A
C1395      C1406   1.420       .  A
C1396      C1397   1.378       .  A
C1396      H1408   1.082       .  S
C1397      H1409   1.082       .  S
C1398      C1399   1.409       .  A
C1398      H1410   1.082       .  S
C1399      H1411   1.082       .  S
C1400      C1401   1.367       .  A
C1400      H1412   1.074       .  S
C1401      H1413   1.083       .  S
C1402      C1403   1.368       .  A
C1402      H1414   1.082       .  S
C1403      H1415   1.081       .  S
C1404      C2852   1.475       .  S
C1405      C2796   1.466       .  S
N1418      C1423   1.348       .  A
N1418      C1422   1.337       .  A
N1418      H1450   1.042       .  S
N1419      C1426   1.355       .  A
N1419      C1427   1.356       .  A
N1420      C1425   1.369       .  A
N1420      C1424   1.364       .  A
N1420      H1451   1.042       .  S
N1421      C1428   1.337       .  A
N1421      C1429   1.326       .  A
C1422      C1430   1.388       .  A
C1422      C1438   1.395       .  A
C1423      C1439   1.407       .  A
C1423      C1431   1.386       .  A
C1424      C1432   1.390   1_655  A
C1424      C1441   1.452       .  A
C1425      C1440   1.453       .  A
C1425      C1433   1.389   1_655  A
C1426      C1438   1.413       .  A
C1426      C1434   1.384       .  A
C1427      C1441   1.419       .  A
C1427      C1435   1.386       .  A
C1428      C1436   1.382       .  A
C1428      C1439   1.388       .  A
C1429      C1437   1.390       .  A
C1429      C1440   1.388       .  A
C1430      C1431   1.379       .  A
C1430      H1442   1.082       .  S
C1431      H1443   1.082       .  S
C1432      C1433   1.409       .  A
C1432      H1444   1.082       .  S
C1433      H1445   1.082       .  S
C1434      C1435   1.366       .  A
C1434      H1446   1.082       .  S
C1435      H1447   1.080       .  S
C1436      C1437   1.382       .  A
C1436      H1448   1.082       .  S
C1437      H1449   1.080       .  S
C1438      C2813   1.466       .  S
C1439      C2729   1.465       .  S
C1440      C1963   1.527       .  S
N1452      C1457   1.344       .  A
N1452      C1456   1.344       .  A
N1452      H1484   1.044       .  S
N1453      C1460   1.349       .  A
N1453      C1461   1.347       .  A
N1454      C1459   1.368       .  A
N1454      C1458   1.370       .  A
N1454      H1485   1.041       .  S
N1455      C1462   1.351       .  A
N1455      C1463   1.346       .  A
C1456      C1464   1.387       .  A
C1456      C1472   1.399       .  A
C1457      C1473   1.399       .  A
C1457      C1465   1.387       .  A
C1458      C1466   1.390       .  A
C1458      C1475   1.457       .  A
C1459      C1474   1.456       .  A
C1459      C1467   1.390       .  A
C1460      C1472   1.393       .  A
C1460      C1468   1.377       .  A
C1461      C1475   1.421       .  A
C1461      C1469   1.398       .  A
C1462      C1470   1.378       .  A
C1462      C1473   1.395       .  A
C1463      C1471   1.392       .  A
C1463      C1474   1.416       .  A
C1464      C1465   1.380       .  A
C1464      H1476   1.082       .  S
C1465      H1477   1.082       .  S
C1466      C1467   1.409       .  A
C1466      H1478   1.082       .  S
C1467      H1479   1.082       .  S
C1468      C1469   1.367       .  A
C1468      H1480   1.083   1_545  S
C1469      H1481   1.078   1_545  S
C1470      C1471   1.370       .  A
C1470      H1482   1.082       .  S
C1471      H1483   1.081       .  S
C1472      C2841   1.470       .  S
C1473      C2715   1.473       .  S
C1486      C2670   1.459       .  S
C1486      N1487   1.347   1_655  A
C1486      N1491   1.352       .  A
N1487      C1488   1.352       .  A
C1488      C2684   1.462       .  S
C1488      N1489   1.355       .  A
N1489      C1490   1.361       .  A
C1490      C2656   1.465       .  S
C1490      N1491   1.353   1_455  A
N1492      C1497   1.340       .  A
N1492      C1496   1.345       .  A
N1492      H1524   1.040       .  S
N1493      C1500   1.346       .  A
N1493      C1501   1.341       .  A
N1494      C1499   1.371       .  A
N1494      C1498   1.370       .  A
N1494      H1525   1.042       .  S
N1495      C1502   1.352       .  A
N1495      C1503   1.352       .  A
C1496      C1504   1.385       .  A
C1496      C1512   1.402       .  A
C1497      C1513   1.399       .  A
C1497      C1505   1.388       .  A
C1498      C1506   1.388       .  A
C1498      C1515   1.456       .  A
C1499      C1514   1.460       .  A
C1499      C1507   1.391       .  A
C1500      C1512   1.404       .  A
C1500      C1508   1.387       .  A
C1501      C1515   1.392       .  A
C1501      C1509   1.388       .  A
C1502      C1510   1.387       .  A
C1502      C1513   1.412       .  A
C1503      C1511   1.387       .  A
C1503      C1514   1.412       .  A
C1504      C1505   1.383       .  A
C1504      H1516   1.082       .  S
C1505      H1517   1.082       .  S
C1506      C1507   1.409       .  A
C1506      H1518   1.082       .  S
C1507      H1519   1.081       .  S
C1508      C1509   1.366       .  A
C1508      H1520   1.082       .  S
C1509      H1521   1.082       .  S
C1510      C1511   1.366       .  A
C1510      H1522   1.082       .  S
C1511      H1523   1.082       .  S
C1512      C2642   1.471       .  S
C1513      C2659   1.470       .  S
C1526      C2600   1.478       .  S
C1526      N1527   1.348       .  A
C1526      N1531   1.359       .  A
N1527      C1528   1.348       .  A
C1528      C2628   1.461       .  S
C1528      N1529   1.350       .  A
N1529      C1530   1.359       .  A
C1530      C2614   1.469       .  S
C1530      N1531   1.357       .  A
C1532      C2586   1.461       .  S
C1532      N1533   1.353       .  A
C1532      N1537   1.350       .  A
N1533      C1534   1.364       .  A
C1534      C2575   1.483       .  S
C1534      N1535   1.360       .  A
N1535      C1536   1.355       .  A
C1536      C2645   1.455       .  S
C1536      N1537   1.343       .  A
N1538      C1543   1.343       .  A
N1538      C1542   1.345       .  A
N1538      H1570   1.044       .  S
N1539      C1546   1.349       .  A
N1539      C1547   1.341       .  A
N1540      C1545   1.372       .  A
N1540      C1544   1.367       .  A
N1540      H1571   1.042       .  S
N1541      C1548   1.349       .  A
N1541      C1549   1.347       .  A
C1542      C1550   1.389       .  A
C1542      C1558   1.404       .  A
C1543      C1559   1.396       .  A
C1543      C1551   1.386       .  A
C1544      C1552   1.392       .  A
C1544      C1561   1.461       .  A
C1545      C1560   1.461       .  A
C1545      C1553   1.390       .  A
C1546      C1558   1.392       .  A
C1546      C1554   1.378       .  A
C1547      C1561   1.411       .  A
C1547      C1555   1.395       .  A
C1548      C1556   1.377       .  A
C1548      C1559   1.391       .  A
C1549      C1557   1.372       .  A
C1549      C1560   1.404       .  A
C1550      C1551   1.379       .  A
C1550      H1562   1.082       .  S
C1551      H1563   1.082       .  S
C1552      C1553   1.413       .  A
C1552      H1564   1.082       .  S
C1553      H1565   1.082       .  S
C1554      C1555   1.370       .  A
C1554      H1566   1.082       .  S
C1555      H1567   1.083       .  S
C1556      C1557   1.372       .  A
C1556      H1568   1.081       .  S
C1557      H1569   1.077       .  S
C1558      C2572   1.476       .  S
C1559      C2603   1.467       .  S
C1572      C2558   1.458       .  S
C1572      N1573   1.348       .  A
C1572      N1577   1.348       .  A
N1573      C1574   1.355       .  A
C1574      C2544   1.456       .  S
C1574      N1575   1.354   1_455  A
N1575      C1576   1.354       .  A
C1576      C2530   1.459       .  S
C1576      N1577   1.347   1_655  A
N1578      C1583   1.348       .  A
N1578      C1582   1.345       .  A
N1578      H1610   1.043       .  S
N1579      C1586   1.354       .  A
N1579      C1587   1.353       .  A
N1580      C1585   1.369       .  A
N1580      C1584   1.356       .  A
N1580      H1611   1.039       .  S
N1581      C1588   1.336       .  A
N1581      C1589   1.332       .  A
C1582      C1590   1.388       .  A
C1582      C1598   1.406       .  A
C1583      C1599   1.407       .  A
C1583      C1591   1.386       .  A
C1584      C1592   1.388       .  A
C1584      C1601   1.442       .  A
C1585      C1600   1.452       .  A
C1585      C1593   1.390       .  A
C1586      C1598   1.416       .  A
C1586      C1594   1.386       .  A
C1587      C1601   1.419       .  A
C1587      C1595   1.389       .  A
C1588      C1596   1.387       .  A
C1588      C1599   1.391       .  A
C1589      C1597   1.387       .  A
C1589      C1600   1.391       .  A
C1590      C1591   1.380       .  A
C1590      H1602   1.082       .  S
C1591      H1603   1.082       .  S
C1592      C1593   1.408       .  A
C1592      H1604   1.082       .  S
C1593      H1605   1.081       .  S
C1594      C1595   1.371       .  A
C1594      H1606   1.081       .  S
C1595      H1607   1.082       .  S
C1596      C1597   1.373       .  A
C1596      H1608   1.082       .  S
C1597      H1609   1.082       .  S
C1598      C2589   1.489       .  S
C1599      C2547   1.460       .  S
C1600      C1962   1.526       .  S
N1612      C1617   1.343       .  A
N1612      C1616   1.339       .  A
N1612      H1644   1.037       .  S
N1613      C1620   1.349       .  A
N1613      C1621   1.348       .  A
N1614      C1619   1.372       .  A
N1614      C1618   1.378       .  A
N1614      H1645   1.040       .  S
N1615      C1622   1.355       .  A
N1615      C1623   1.346       .  A
C1616      C1624   1.388       .  A
C1616      C1632   1.399       .  A
C1617      C1633   1.394       .  A
C1617      C1625   1.384       .  A
C1618      C1626   1.391       .  A
C1618      C1635   1.470       .  A
C1619      C1634   1.466       .  A
C1619      C1627   1.391       .  A
C1620      C1632   1.412       .  A
C1620      C1628   1.389       .  A
C1621      C1635   1.404       .  A
C1621      C1629   1.387       .  A
C1622      C1630   1.381       .  A
C1622      C1633   1.401       .  A
C1623      C1631   1.390       .  A
C1623      C1634   1.407       .  A
C1624      C1625   1.376       .  A
C1624      H1636   1.081       .  S
C1625      H1637   1.083       .  S
C1626      C1627   1.412       .  A
C1626      H1638   1.082       .  S
C1627      H1639   1.082       .  S
C1628      C1629   1.367       .  A
C1628      H1640   1.082       .  S
C1629      H1641   1.082       .  S
C1630      C1631   1.352       .  A
C1630      H1642   1.082       .  S
C1631      H1643   1.080       .  S
C1632      C2533   1.464       .  S
C1633      C2673   1.472       .  S
N1646      C1651   1.341       .  A
N1646      C1650   1.345       .  A
N1646      H1678   1.041       .  S
N1647      C1654   1.343       .  A
N1647      C1655   1.334       .  A
N1648      C1653   1.361       .  A
N1648      C1652   1.371       .  A
N1648      H1679   1.041       .  S
N1649      C1656   1.355       .  A
N1649      C1657   1.353       .  A
C1650      C1658   1.386       .  A
C1650      C1666   1.403       .  A
C1651      C1667   1.400       .  A
C1651      C1659   1.388       .  A
C1652      C1660   1.389       .  A
C1652      C1669   1.454       .  A
C1653      C1668   1.450       .  A
C1653      C1661   1.390       .  A
C1654      C1666   1.391       .  A
C1654      C1662   1.382       .  A
C1655      C1669   1.394       .  A
C1655      C1663   1.381       .  A
C1656      C1664   1.384       .  A
C1656      C1667   1.412       .  A
C1657      C1665   1.390       .  A
C1657      C1668   1.418       .  A
C1658      C1659   1.381       .  A
C1658      H1670   1.082       .  S
C1659      H1671   1.082       .  S
C1660      C1661   1.409       .  A
C1660      H1672   1.082   1_565  S
C1661      H1673   1.082   1_565  S
C1662      C1663   1.374       .  A
C1662      H1674   1.082       .  S
C1663      H1675   1.076       .  S
C1664      C1665   1.369       .  A
C1664      H1676   1.082       .  S
C1665      H1677   1.082       .  S
C1666      C2631   1.465       .  S
C1667      C2687   1.474       .  S
N1680      C1685   1.343       .  A
N1680      C1684   1.341       .  A
N1680      H1712   1.036       .  S
N1681      C1688   1.355       .  A
N1681      C1689   1.350       .  A
N1682      C1687   1.369       .  A
N1682      C1686   1.365       .  A
N1682      H1713   1.040       .  S
N1683      C1690   1.346       .  A
N1683      C1691   1.341       .  A
C1684      C1692   1.386       .  A
C1684      C1700   1.397       .  A
C1685      C1701   1.399       .  A
C1685      C1693   1.386       .  A
C1686      C1694   1.389   1_556  A
C1686      C1703   1.448       .  A
C1687      C1702   1.449       .  A
C1687      C1695   1.388   1_556  A
C1688      C1700   1.410       .  A
C1688      C1696   1.384       .  A
C1689      C1703   1.412       .  A
C1689      C1697   1.390       .  A
C1690      C1698   1.385       .  A
C1690      C1701   1.403       .  A
C1691      C1699   1.389       .  A
C1691      C1702   1.399       .  A
C1692      C1693   1.378       .  A
C1692      H1704   1.082       .  S
C1693      H1705   1.082       .  S
C1694      C1695   1.404       .  A
C1694      H1706   1.082       .  S
C1695      H1707   1.082       .  S
C1696      C1697   1.357       .  A
C1696      H1708   1.082       .  S
C1697      H1709   1.080       .  S
C1698      C1699   1.369       .  A
C1698      H1710   1.082       .  S
C1699      H1711   1.081       .  S
C1700      C2617   1.471       .  S
C1701      C2561   1.462       .  S
C1714      C2488   1.474       .  S
C1714      N1715   1.353       .  A
C1714      N1719   1.354       .  A
N1715      C1716   1.354       .  A
C1716      C2502   1.478       .  S
C1716      N1717   1.357       .  A
N1717      C1718   1.359       .  A
C1718      C2516   1.457       .  S
C1718      N1719   1.351       .  A
N1720      C1725   1.349       .  A
N1720      C1724   1.343       .  A
N1720      H1752   1.037       .  S
N1721      C1728   1.354       .  A
N1721      C1729   1.353       .  A
N1722      C1727   1.365       .  A
N1722      C1726   1.367       .  A
N1722      H1753   1.039       .  S
N1723      C1730   1.353       .  A
N1723      C1731   1.348       .  A
C1724      C1732   1.386       .  A
C1724      C1740   1.402       .  A
C1725      C1741   1.409       .  A
C1725      C1733   1.387       .  A
C1726      C1734   1.388       .  A
C1726      C1743   1.447       .  A
C1727      C1742   1.446       .  A
C1727      C1735   1.388       .  A
C1728      C1740   1.414       .  A
C1728      C1736   1.387       .  A
C1729      C1743   1.413       .  A
C1729      C1737   1.387       .  A
C1730      C1738   1.385       .  A
C1730      C1741   1.412       .  A
C1731      C1739   1.390       .  A
C1731      C1742   1.410       .  A
C1732      C1733   1.380       .  A
C1732      H1744   1.082       .  S
C1733      H1745   1.082       .  S
C1734      C1735   1.401       .  A
C1734      H1746   1.082       .  S
C1735      H1747   1.082       .  S
C1736      C1737   1.365       .  A
C1736      H1748   1.082       .  S
C1737      H1749   1.082       .  S
C1738      C1739   1.366       .  A
C1738      H1750   1.082       .  S
C1739      H1751   1.082       .  S
C1740      C2505   1.477       .  S
C1741      C2474   1.487       .  S
C1754      C2477   1.469       .  S
C1754      N1755   1.358       .  A
C1754      N1759   1.356       .  A
N1755      C1756   1.363       .  A
C1756      C2460   1.473       .  S
C1756      N1757   1.352       .  A
N1757      C1758   1.351       .  A
C1758      C2446   1.473       .  S
C1758      N1759   1.353       .  A
C1760      C2418   1.466       .  S
C1760      N1761   1.346       .  A
C1760      N1765   1.355       .  A
N1761      C1762   1.346       .  A
C1762      C2432   1.483   1_655  S
C1762      N1763   1.358       .  A
N1763      C1764   1.363       .  A
C1764      C2404   1.478       .  S
C1764      N1765   1.364       .  A
C1766      C2365   1.469       .  S
C1766      N1767   1.352   1_655  A
C1766      N1771   1.350       .  A
N1767      C1768   1.362       .  A
C1768      C2393   1.474       .  S
C1768      N1769   1.362   1_455  A
N1769      C1770   1.360       .  A
C1770      C2376   1.487       .  S
C1770      N1771   1.350       .  A
N1772      C1777   1.343       .  A
N1772      C1776   1.347       .  A
N1772      H1804   1.042       .  S
N1773      C1780   1.348       .  A
N1773      C1781   1.341       .  A
N1774      C1779   1.370       .  A
N1774      C1778   1.369       .  A
N1774      H1805   1.041       .  S
N1775      C1782   1.348       .  A
N1775      C1783   1.348       .  A
C1776      C1784   1.388       .  A
C1776      C1792   1.405       .  A
C1777      C1793   1.399       .  A
C1777      C1785   1.386       .  A
C1778      C1786   1.390       .  A
C1778      C1795   1.458       .  A
C1779      C1794   1.458       .  A
C1779      C1787   1.389       .  A
C1780      C1792   1.393       .  A
C1780      C1788   1.379       .  A
C1781      C1795   1.409       .  A
C1781      C1789   1.393       .  A
C1782      C1790   1.379       .  A
C1782      C1793   1.393       .  A
C1783      C1791   1.393       .  A
C1783      C1794   1.416       .  A
C1784      C1785   1.378       .  A
C1784      H1796   1.082       .  S
C1785      H1797   1.082       .  S
C1786      C1787   1.408       .  A
C1786      H1798   1.082       .  S
C1787      H1799   1.082       .  S
C1788      C1789   1.371       .  A
C1788      H1800   1.083       .  S
C1789      H1801   1.083       .  S
C1790      C1791   1.368       .  A
C1790      H1802   1.082       .  S
C1791      H1803   1.082       .  S
C1792      C2390   1.476       .  S
C1793      C2435   1.466       .  S
N1806      C1811   1.351       .  A
N1806      C1810   1.343       .  A
N1806      H1838   1.042       .  S
N1807      C1814   1.357       .  A
N1807      C1815   1.357       .  A
N1808      C1813   1.372       .  A
N1808      C1812   1.365       .  A
N1808      H1839   1.039       .  S
N1809      C1816   1.341       .  A
N1809      C1817   1.336       .  A
C1810      C1818   1.387       .  A
C1810      C1826   1.404       .  A
C1811      C1827   1.410       .  A
C1811      C1819   1.387       .  A
C1812      C1820   1.389       .  A
C1812      C1829   1.454       .  A
C1813      C1828   1.459       .  A
C1813      C1821   1.390       .  A
C1814      C1826   1.419       .  A
C1814      C1822   1.386       .  A
C1815      C1829   1.421       .  A
C1815      C1823   1.387       .  A
C1816      C1824   1.384       .  A
C1816      C1827   1.393       .  A
C1817      C1825   1.389       .  A
C1817      C1828   1.395       .  A
C1818      C1819   1.381       .  A
C1818      H1830   1.082       .  S
C1819      H1831   1.082       .  S
C1820      C1821   1.408       .  A
C1820      H1832   1.082       .  S
C1821      H1833   1.082       .  S
C1822      C1823   1.363       .  A
C1822      H1834   1.081       .  S
C1823      H1835   1.081       .  S
C1824      C1825   1.373       .  A
C1824      H1836   1.083       .  S
C1825      H1837   1.083       .  S
C1826      C2362   1.480       .  S
C1827      C2449   1.476       .  S
C1829      C1960   1.527       .  S
N1840      C1845   1.343       .  A
N1840      C1844   1.343       .  A
N1840      H1872   1.043       .  S
N1841      C1848   1.342       .  A
N1841      C1849   1.334       .  A
N1842      C1847   1.362       .  A
N1842      C1846   1.367       .  A
N1842      H1873   1.042       .  S
N1843      C1850   1.352       .  A
N1843      C1851   1.350       .  A
C1844      C1852   1.388       .  A
C1844      C1860   1.405       .  A
C1845      C1861   1.400       .  A
C1845      C1853   1.386       .  A
C1846      C1854   1.390   1_554  A
C1846      C1863   1.452       .  A
C1847      C1862   1.450       .  A
C1847      C1855   1.391   1_554  A
C1848      C1860   1.391       .  A
C1848      C1856   1.380       .  A
C1849      C1863   1.400       .  A
C1849      C1857   1.391       .  A
C1850      C1858   1.379       .  A
C1850      C1861   1.402       .  A
C1851      C1859   1.394       .  A
C1851      C1862   1.421       .  A
C1852      C1853   1.379       .  A
C1852      H1864   1.082       .  S
C1853      H1865   1.082       .  S
C1854      C1855   1.410       .  A
C1854      H1866   1.082       .  S
C1855      H1867   1.082       .  S
C1856      C1857   1.379       .  A
C1856      H1868   1.082       .  S
C1857      H1869   1.081       .  S
C1858      C1859   1.368       .  A
C1858      H1870   1.082       .  S
C1859      H1871   1.082       .  S
C1860      C2519   1.467       .  S
C1861      C2421   1.481       .  S
N1874      C1879   1.351       .  A
N1874      C1878   1.344       .  A
N1874      H1906   1.043       .  S
N1875      C1882   1.354       .  A
N1875      C1883   1.354       .  A
N1876      C1881   1.372       .  A
N1876      C1880   1.366       .  A
N1876      H1907   1.040       .  S
N1877      C1884   1.343       .  A
N1877      C1885   1.335       .  A
C1878      C1886   1.387       .  A
C1878      C1894   1.404       .  A
C1879      C1895   1.409       .  A
C1879      C1887   1.387       .  A
C1880      C1888   1.391       .  A
C1880      C1897   1.459       .  A
C1881      C1896   1.460       .  A
C1881      C1889   1.390       .  A
C1882      C1894   1.406       .  A
C1882      C1890   1.379       .  A
C1883      C1897   1.429       .  A
C1883      C1891   1.397       .  A
C1884      C1892   1.379       .  A
C1884      C1895   1.389       .  A
C1885      C1893   1.385       .  A
C1885      C1896   1.394       .  A
C1886      C1887   1.377       .  A
C1886      H1898   1.082       .  S
C1887      H1899   1.082       .  S
C1888      C1889   1.411       .  A
C1888      H1900   1.082       .  S
C1889      H1901   1.082       .  S
C1890      C1891   1.364       .  A
C1890      H1902   1.083       .  S
C1891      H1903   1.080       .  S
C1892      C1893   1.375       .  A
C1892      H1904   1.080       .  S
C1893      H1905   1.082       .  S
C1894      C2407   1.481       .  S
C1895      C2463   1.481       .  S
N1908      C1913   1.350       .  A
N1908      C1912   1.344       .  A
N1908      H1940   1.044       .  S
N1909      C1916   1.353       .  A
N1909      C1917   1.353       .  A
N1910      C1915   1.370       .  A
N1910      C1914   1.366       .  A
N1910      H1941   1.040       .  S
N1911      C1918   1.347       .  A
N1911      C1919   1.342       .  A
C1912      C1920   1.388       .  A
C1912      C1928   1.401       .  A
C1913      C1929   1.404       .  A
C1913      C1921   1.386       .  A
C1914      C1922   1.390       .  A
C1914      C1931   1.455       .  A
C1915      C1930   1.455       .  A
C1915      C1923   1.389       .  A
C1916      C1928   1.402       .  A
C1916      C1924   1.380       .  A
C1917      C1931   1.425       .  A
C1917      C1925   1.396       .  A
C1918      C1926   1.376       .  A
C1918      C1929   1.390       .  A
C1919      C1927   1.390       .  A
C1919      C1930   1.407       .  A
C1920      C1921   1.375       .  A
C1920      H1932   1.082       .  S
C1921      H1933   1.082       .  S
C1922      C1923   1.407       .  A
C1922      H1934   1.082       .  S
C1923      H1935   1.082       .  S
C1924      C1925   1.365       .  A
C1924      H1936   1.083       .  S
C1925      H1937   1.080       .  S
C1926      C1927   1.371       .  A
C1926      H1938   1.080       .  S
C1927      H1939   1.082       .  S
C1928      C2491   1.469       .  S
C1929      C2379   1.481       .  S
O1942      C1958   1.284       .  A
O1942     Zn1948   2.118       .  S
C1943      O1959   1.284       .  A
C1943      O1956   1.284       .  A
O1944      C1957   1.276       .  A
O1944     Cd1951   2.115       .  S
O1945      C1963   1.299       .  A
O1945     Cd1954   2.162       .  S
O1946      C1960   1.287       .  A
O1946     Cd1950   2.164   1_655  S
O1947      C1958   1.289       .  A
O1947     Cd1950   2.163       .  S
Zn1948     O1959   2.088   1_455  S
Zn1948     O1961   2.156       .  S
Zn1948     O1953   1.984       .  S
O1949      C1960   1.282       .  A
O1949     Cd1954   2.148       .  S
Cd1950     O1952   2.183       .  S
Cd1950     O1953   2.031       .  S
Cd1951     O1955   2.100       .  S
Cd1951     O1964   2.113       .  S
Cd1951     O1953   2.133       .  S
O1952      C1962   1.302       .  A
O1953     Cd1954   2.029   1_455  S
Cd1954     O1956   2.136       .  S
O1955      C1962   1.272       .  A
C1957      O1961   1.299       .  A
C1957      C2113   1.531       .  S
C1963      O1964   1.273   1_655  A
C1965      C2337   1.483       .  S
C1965      N1966   1.356       .  A
C1965      N1970   1.364       .  A
N1966      C1967   1.353   1_556  A
C1967      C2320   1.466       .  S
C1967      N1968   1.347   1_455  A
N1968      C1969   1.356       .  A
C1969      C2348   1.468       .  S
C1969      N1970   1.359   1_654  A
N1971      C1976   1.347       .  A
N1971      C1975   1.345       .  A
N1971      H2003   1.035       .  S
N1972      C1979   1.356       .  A
N1972      C1980   1.352       .  A
N1973      C1978   1.374       .  A
N1973      C1977   1.372       .  A
N1973      H2004   1.038       .  S
N1974      C1981   1.354       .  A
N1974      C1982   1.350       .  A
C1975      C1983   1.386       .  A
C1975      C1991   1.404       .  A
C1976      C1992   1.404       .  A
C1976      C1984   1.386       .  A
C1977      C1985   1.389       .  A
C1977      C1994   1.460       .  A
C1978      C1993   1.460       .  A
C1978      C1986   1.389       .  A
C1979      C1991   1.411       .  A
C1979      C1987   1.383       .  A
C1980      C1994   1.418       .  A
C1980      C1988   1.392       .  A
C1981      C1989   1.385       .  A
C1981      C1992   1.412       .  A
C1982      C1990   1.389       .  A
C1982      C1993   1.413       .  A
C1983      C1984   1.378       .  A
C1983      H1995   1.083       .  S
C1984      H1996   1.082       .  S
C1985      C1986   1.404       .  A
C1985      H1997   1.082       .  S
C1986      H1998   1.082       .  S
C1987      C1988   1.360       .  A
C1987      H1999   1.082       .  S
C1988      H2000   1.082       .  S
C1989      C1990   1.363       .  A
C1989      H2001   1.082       .  S
C1990      H2002   1.080       .  S
C1991      C2323   1.478       .  S
C1992      C2306   1.478       .  S
C2005      C2267   1.473       .  S
C2005      N2006   1.351   1_545  A
C2005      N2010   1.351   1_455  A
N2006      C2007   1.355   1_455  A
C2007      C2292   1.461       .  S
C2007      N2008   1.353       .  A
N2008      C2009   1.354   1_565  A
C2009      C2278   1.456       .  S
C2009      N2010   1.349       .  A
C2011      C2309   1.476       .  S
C2011      N2012   1.363       .  A
C2011      N2016   1.361       .  A
N2012      C2013   1.354       .  A
C2013      C2253   1.464       .  S
C2013      N2014   1.348       .  A
N2014      C2015   1.350       .  A
C2015      C2236   1.487       .  S
C2015      N2016   1.359       .  A
N2017      C2022   1.339       .  A
N2017      C2021   1.350       .  A
N2017      H2049   1.038       .  S
N2018      C2025   1.343       .  A
N2018      C2026   1.341       .  A
N2019      C2024   1.365       .  A
N2019      C2023   1.374       .  A
N2019      H2050   1.037       .  S
N2020      C2027   1.358       .  A
N2020      C2028   1.354       .  A
C2021      C2029   1.387       .  A
C2021      C2037   1.406       .  A
C2022      C2038   1.400       .  A
C2022      C2030   1.388       .  A
C2023      C2031   1.387       .  A
C2023      C2040   1.460       .  A
C2024      C2039   1.464       .  A
C2024      C2032   1.394       .  A
C2025      C2037   1.393       .  A
C2025      C2033   1.387       .  A
C2026      C2040   1.390       .  A
C2026      C2034   1.383       .  A
C2027      C2035   1.380       .  A
C2027      C2038   1.411       .  A
C2028      C2036   1.399       .  A
C2028      C2039   1.435       .  A
C2029      C2030   1.376       .  A
C2029      H2041   1.082       .  S
C2030      H2042   1.082       .  S
C2031      C2032   1.412       .  A
C2031      H2043   1.082       .  S
C2032      H2044   1.082       .  S
C2033      C2034   1.371       .  A
C2033      H2045   1.082       .  S
C2034      H2046   1.082       .  S
C2035      C2036   1.356       .  A
C2035      H2047   1.082   1_545  S
C2036      H2048   1.080       .  S
C2037      C2239   1.475       .  S
C2038      C2264   1.466       .  S
C2051      C2194   1.473   1_556  S
C2051      N2052   1.335       .  A
C2051      N2056   1.352   1_556  A
N2052      C2053   1.343       .  A
C2053      C2225   1.469       .  S
C2053      N2054   1.363       .  A
N2054      C2055   1.369       .  A
C2055      C2211   1.484   1_546  S
C2055      N2056   1.361   1_556  A
N2057      C2062   1.346       .  A
N2057      C2061   1.335       .  A
N2057      H2089   1.039       .  S
N2058      C2065   1.354       .  A
N2058      C2066   1.353       .  A
N2059      C2064   1.368       .  A
N2059      C2063   1.370       .  A
N2059      H2090   1.040       .  S
N2060      C2067   1.348       .  A
N2060      C2068   1.340       .  A
C2061      C2069   1.388       .  A
C2061      C2077   1.393       .  A
C2062      C2078   1.398       .  A
C2062      C2070   1.385       .  A
C2063      C2071   1.389       .  A
C2063      C2080   1.458       .  A
C2064      C2079   1.459       .  A
C2064      C2072   1.391       .  A
C2065      C2077   1.407       .  A
C2065      C2073   1.380       .  A
C2066      C2080   1.414       .  A
C2066      C2074   1.379       .  A
C2067      C2075   1.383       .  A
C2067      C2078   1.400       .  A
C2068      C2076   1.391       .  A
C2068      C2079   1.401       .  A
C2069      C2070   1.378       .  A
C2069      H2081   1.082       .  S
C2070      H2082   1.082       .  S
C2071      C2072   1.410       .  A
C2071      H2083   1.082       .  S
C2072      H2084   1.081       .  S
C2073      C2074   1.359       .  A
C2073      H2085   1.082       .  S
C2074      H2086   1.074       .  S
C2075      C2076   1.374       .  A
C2075      H2087   1.082       .  S
C2076      H2088   1.083       .  S
C2077      C2197   1.461       .  S
C2078      C2250   1.472       .  S
N2091      C2096   1.344       .  A
N2091      C2095   1.350       .  A
N2091      H2123   1.044       .  S
N2092      C2099   1.340       .  A
N2092      C2100   1.337       .  A
N2093      C2098   1.364       .  A
N2093      C2097   1.373       .  A
N2093      H2124   1.041       .  S
N2094      C2101   1.353       .  A
N2094      C2102   1.351       .  A
C2095      C2103   1.386       .  A
C2095      C2111   1.407       .  A
C2096      C2112   1.406       .  A
C2096      C2104   1.389       .  A
C2097      C2105   1.389       .  A
C2097      C2114   1.459       .  A
C2098      C2113   1.459       .  A
C2098      C2106   1.392       .  A
C2099      C2111   1.383       .  A
C2099      C2107   1.380       .  A
C2100      C2114   1.392       .  A
C2100      C2108   1.385       .  A
C2101      C2109   1.380       .  A
C2101      C2112   1.399       .  A
C2102      C2110   1.392       .  A
C2102      C2113   1.421       .  A
C2103      C2104   1.381       .  A
C2103      H2115   1.082       .  S
C2104      H2116   1.082       .  S
C2105      C2106   1.411       .  A
C2105      H2117   1.082       .  S
C2106      H2118   1.082       .  S
C2107      C2108   1.372       .  A
C2107      H2119   1.078       .  S
C2108      H2120   1.082       .  S
C2109      C2110   1.371       .  A
C2109      H2121   1.081       .  S
C2110      H2122   1.082       .  S
C2111      C2222   1.488       .  S
C2112      C2334   1.476       .  S
N2125      C2130   1.345       .  A
N2125      C2129   1.349       .  A
N2125      H2157   1.042       .  S
N2126      C2133   1.344       .  A
N2126      C2134   1.344       .  A
N2127      C2132   1.360       .  A
N2127      C2131   1.371       .  A
N2127      H2158   1.039       .  S
N2128      C2135   1.358       .  A
N2128      C2136   1.355       .  A
C2129      C2137   1.386       .  A
C2129      C2145   1.405       .  A
C2130      C2146   1.402       .  A
C2130      C2138   1.387       .  A
C2131      C2139   1.388       .  A
C2131      C2148   1.451       .  A
C2132      C2147   1.448       .  A
C2132      C2140   1.390       .  A
C2133      C2145   1.393       .  A
C2133      C2141   1.379       .  A
C2134      C2148   1.405       .  A
C2134      C2142   1.389       .  A
C2135      C2143   1.381       .  A
C2135      C2146   1.411       .  A
C2136      C2144   1.396       .  A
C2136      C2147   1.427       .  A
C2137      C2138   1.380       .  A
C2137      H2149   1.082       .  S
C2138      H2150   1.082       .  S
C2139      C2140   1.404       .  A
C2139      H2151   1.082       .  S
C2140      H2152   1.082       .  S
C2141      C2142   1.365       .  A
C2141      H2153   1.077   1_455  S
C2142      H2154   1.082       .  S
C2143      C2144   1.360       .  A
C2143      H2155   1.082       .  S
C2144      H2156   1.081       .  S
C2145      C2295   1.476       .  S
C2146      C2208   1.479       .  S
N2159      C2164   1.372       .  A
N2159      C2163   1.364       .  A
N2159      H2191   1.042       .  S
N2160      C2167   1.358       .  A
N2160      C2168   1.356       .  A
N2161      C2166   1.346       .  A
N2161      C2165   1.342       .  A
N2161      H2192   1.044       .  S
N2162      C2169   1.331       .  A
N2162      C2170   1.337       .  A
C2163      C2171   1.390       .  A
C2163      C2179   1.455       .  A
C2164      C2180   1.457       .  A
C2164      C2172   1.390       .  A
C2165      C2173   1.386       .  A
C2165      C2182   1.397       .  A
C2166      C2181   1.409       .  A
C2166      C2174   1.389       .  A
C2167      C2179   1.430       .  A
C2167      C2175   1.391       .  A
C2168      C2182   1.415       .  A
C2168      C2176   1.381       .  A
C2169      C2177   1.390       .  A
C2169      C2180   1.394       .  A
C2170      C2178   1.385       .  A
C2170      C2181   1.394       .  A
C2171      C2172   1.409       .  A
C2171      H2183   1.082       .  S
C2172      H2184   1.082       .  S
C2173      C2174   1.384       .  A
C2173      H2185   1.082       .  S
C2174      H2186   1.082       .  S
C2175      C2176   1.366       .  A
C2175      H2187   1.075       .  S
C2176      H2188   1.082       .  S
C2177      C2178   1.377       .  A
C2177      H2189   1.083       .  S
C2178      H2190   1.083       .  S
C2181      C2281   1.466       .  S
C2182      C2351   1.485       .  S
C2193      C2194   1.402       .  A
C2193      C2198   1.398       .  A
C2193      H2200   1.083       .  S
C2194      C2195   1.424   1_554  A
C2195      C2196   1.389   1_556  A
C2195      N2202   1.434       .  S
C2196      C2197   1.388       .  A
C2196      H2201   1.085       .  S
C2197      C2198   1.407       .  A
C2198      N2199   1.438       .  S
N2199      H2203   1.046       .  S
N2199      H2204   1.046       .  S
N2202      H2205   1.046       .  S
N2202      H2206   1.046       .  S
C2207      C2208   1.396       .  A
C2207      C2212   1.397       .  A
C2207      H2214   1.084       .  S
C2208      C2209   1.410       .  A
C2209      C2210   1.401       .  A
C2209      N2216   1.432       .  S
C2210      C2211   1.407       .  A
C2210      H2215   1.083   1_554  S
C2211      C2212   1.418       .  A
C2212      N2213   1.433       .  S
N2213      H2217   1.046       .  S
N2213      H2218   1.046       .  S
N2216      H2219   1.046       .  S
N2216      H2220   1.045       .  S
C2221      C2222   1.401       .  A
C2221      C2226   1.400       .  A
C2221      H2228   1.082       .  S
C2222      C2223   1.418       .  A
C2223      C2224   1.402       .  A
C2223      N2230   1.433       .  S
C2224      C2225   1.398       .  A
C2224      H2229   1.084       .  S
C2225      C2226   1.415       .  A
C2226      N2227   1.438       .  S
N2227      H2231   1.045       .  S
N2227      H2232   1.045       .  S
N2230      H2233   1.046       .  S
N2230      H2234   1.045       .  S
C2235      C2236   1.412       .  A
C2235      C2240   1.390       .  A
C2235      H2242   1.083       .  S
C2236      C2237   1.414       .  A
C2237      C2238   1.406       .  A
C2237      N2244   1.436       .  S
C2238      C2239   1.405       .  A
C2238      H2243   1.084       .  S
C2239      C2240   1.404       .  A
C2240      N2241   1.434       .  S
N2241      H2245   1.045       .  S
N2241      H2246   1.041       .  S
N2244      H2247   1.045       .  S
N2244      H2248   1.045       .  S
C2249      C2250   1.405       .  A
C2249      C2254   1.409       .  A
C2249      H2256   1.084       .  S
C2250      C2251   1.409       .  A
C2251      C2252   1.385       .  A
C2251      N2258   1.434       .  S
C2252      C2253   1.401       .  A
C2252      H2257   1.085       .  S
C2253      C2254   1.409       .  A
C2254      N2255   1.437       .  S
N2255      H2259   1.046       .  S
N2255      H2260   1.045       .  S
N2258      H2261   1.045       .  S
N2258      H2262   1.045       .  S
C2263      C2264   1.394       .  A
C2263      C2268   1.385       .  A
C2263      H2270   1.085       .  S
C2264      C2265   1.403       .  A
C2265      C2266   1.403   1_545  A
C2265      N2272   1.437   1_545  S
C2266      C2267   1.410   1_565  A
C2266      H2271   1.083       .  S
C2267      C2268   1.415       .  A
C2268      N2269   1.433       .  S
N2269      H2273   1.046       .  S
N2269      H2274   1.046       .  S
N2272      H2275   1.046       .  S
N2272      H2276   1.046       .  S
C2277      C2278   1.406       .  A
C2277      C2282   1.390       .  A
C2277      H2284   1.083       .  S
C2278      C2279   1.400       .  A
C2279      C2280   1.395       .  A
C2279      N2286   1.431       .  S
C2280      C2281   1.405       .  A
C2280      H2285   1.084       .  S
C2281      C2282   1.405       .  A
C2282      N2283   1.433       .  S
N2283      H2287   1.045       .  S
N2283      H2288   1.045       .  S
N2286      H2289   1.045   1_545  S
N2286      H2290   1.045       .  S
C2291      C2292   1.408       .  A
C2291      C2296   1.400   1_655  A
C2291      H2298   1.084       .  S
C2292      C2293   1.403   1_655  A
C2293      C2294   1.390       .  A
C2293      N2300   1.434       .  S
C2294      C2295   1.406       .  A
C2294      H2299   1.084       .  S
C2295      C2296   1.401       .  A
C2296      N2297   1.431   1_455  S
N2297      H2301   1.046   1_655  S
N2297      H2302   1.044       .  S
N2300      H2303   1.046       .  S
N2300      H2304   1.046       .  S
C2305      C2306   1.401       .  A
C2305      C2310   1.404       .  A
C2305      H2312   1.082       .  S
C2306      C2307   1.411       .  A
C2307      C2308   1.393       .  A
C2307      N2314   1.434       .  S
C2308      C2309   1.403       .  A
C2308      H2313   1.084       .  S
C2309      C2310   1.412       .  A
C2310      N2311   1.431       .  S
N2311      H2315   1.045       .  S
N2311      H2316   1.046       .  S
N2314      H2317   1.045       .  S
N2314      H2318   1.045       .  S
C2319      C2320   1.407   1_655  A
C2319      C2324   1.406       .  A
C2319      H2326   1.084       .  S
C2320      C2321   1.409       .  A
C2321      C2322   1.390       .  A
C2321      N2328   1.440       .  S
C2322      C2323   1.399       .  A
C2322      H2327   1.085       .  S
C2323      C2324   1.415   1_455  A
C2324      N2325   1.438       .  S
N2325      H2329   1.046       .  S
N2325      H2330   1.044       .  S
N2328      H2331   1.046       .  S
N2328      H2332   1.046       .  S
C2333      C2334   1.404       .  A
C2333      C2338   1.401       .  A
C2333      H2340   1.084       .  S
C2334      C2335   1.404       .  A
C2335      C2336   1.397       .  A
C2335      N2342   1.433       .  S
C2336      C2337   1.414       .  A
C2336      H2341   1.083       .  S
C2337      C2338   1.412       .  A
C2338      N2339   1.438       .  S
N2339      H2343   1.046       .  S
N2339      H2344   1.046       .  S
N2342      H2345   1.044       .  S
N2342      H2346   1.045       .  S
C2347      C2348   1.399       .  A
C2347      C2352   1.386       .  A
C2347      H2354   1.085   1_655  S
C2348      C2349   1.407       .  A
C2349      C2350   1.410       .  A
C2349      N2356   1.437   1_554  S
C2350      C2351   1.409       .  A
C2350      H2355   1.084       .  S
C2351      C2352   1.417       .  A
C2352      N2353   1.433       .  S
N2353      H2357   1.043       .  S
N2353      H2358   1.045       .  S
N2356      H2359   1.045       .  S
N2356      H2360   1.046       .  S
C2361      C2362   1.397       .  A
C2361      C2366   1.389       .  A
C2361      H2368   1.084       .  S
C2362      C2363   1.411       .  A
C2363      C2364   1.410       .  A
C2363      N2370   1.435       .  S
C2364      C2365   1.404       .  A
C2364      H2369   1.083   1_655  S
C2365      C2366   1.410       .  A
C2366      N2367   1.434       .  S
N2367      H2371   1.045       .  S
N2367      H2372   1.046       .  S
N2370      H2373   1.045       .  S
N2370      H2374   1.046   1_655  S
C2375      C2376   1.414       .  A
C2375      C2380   1.400       .  A
C2375      H2382   1.083       .  S
C2376      C2377   1.411       .  A
C2377      C2378   1.399       .  A
C2377      N2384   1.432       .  S
C2378      C2379   1.405       .  A
C2378      H2383   1.084       .  S
C2379      C2380   1.399       .  A
C2380      N2381   1.432       .  S
N2381      H2385   1.046       .  S
N2381      H2386   1.046       .  S
N2384      H2387   1.046       .  S
N2384      H2388   1.046       .  S
C2389      C2390   1.398       .  A
C2389      C2394   1.403       .  A
C2389      H2396   1.084       .  S
C2390      C2391   1.415       .  A
C2391      C2392   1.391       .  A
C2391      N2398   1.434       .  S
C2392      C2393   1.400       .  A
C2392      H2397   1.084       .  S
C2393      C2394   1.414       .  A
C2394      N2395   1.431       .  S
N2395      H2399   1.046       .  S
N2395      H2400   1.046       .  S
N2398      H2401   1.045       .  S
N2398      H2402   1.044       .  S
C2403      C2404   1.403       .  A
C2403      C2408   1.400       .  A
C2403      H2410   1.084       .  S
C2404      C2405   1.419       .  A
C2405      C2406   1.395       .  A
C2405      N2412   1.431       .  S
C2406      C2407   1.398       .  A
C2406      H2411   1.084       .  S
C2407      C2408   1.411       .  A
C2408      N2409   1.438       .  S
N2409      H2413   1.045       .  S
N2409      H2414   1.045       .  S
N2412      H2415   1.041       .  S
N2412      H2416   1.046       .  S
C2417      C2418   1.402       .  A
C2417      C2422   1.406       .  A
C2417      H2424   1.084       .  S
C2418      C2419   1.408       .  A
C2419      C2420   1.386       .  A
C2419      N2426   1.434       .  S
C2420      C2421   1.400       .  A
C2420      H2425   1.084       .  S
C2421      C2422   1.419       .  A
C2422      N2423   1.438       .  S
N2423      H2427   1.046       .  S
N2423      H2428   1.044       .  S
N2426      H2429   1.046       .  S
N2426      H2430   1.045       .  S
C2431      C2432   1.414       .  A
C2431      C2436   1.390       .  A
C2431      H2438   1.082   1_455  S
C2432      C2433   1.412       .  A
C2433      C2434   1.399       .  A
C2433      N2440   1.431       .  S
C2434      C2435   1.401       .  A
C2434      H2439   1.084       .  S
C2435      C2436   1.400       .  A
C2436      N2437   1.433       .  S
N2437      H2441   1.045       .  S
N2437      H2442   1.045       .  S
N2440      H2443   1.046       .  S
N2440      H2444   1.046       .  S
C2445      C2446   1.408       .  A
C2445      C2450   1.399       .  A
C2445      H2452   1.083       .  S
C2446      C2447   1.408       .  A
C2447      C2448   1.393       .  A
C2447      N2454   1.434       .  S
C2448      C2449   1.404       .  A
C2448      H2453   1.085       .  S
C2449      C2450   1.410       .  A
C2450      N2451   1.438       .  S
N2451      H2455   1.046       .  S
N2451      H2456   1.043       .  S
N2454      H2457   1.046       .  S
N2454      H2458   1.046       .  S
C2459      C2460   1.411       .  A
C2459      C2464   1.398       .  A
C2459      H2466   1.084       .  S
C2460      C2461   1.402       .  A
C2461      C2462   1.395       .  A
C2461      N2468   1.433       .  S
C2462      C2463   1.409       .  A
C2462      H2467   1.084       .  S
C2463      C2464   1.409       .  A
C2464      N2465   1.438       .  S
N2465      H2469   1.046       .  S
N2465      H2470   1.044       .  S
N2468      H2471   1.046       .  S
N2468      H2472   1.046       .  S
C2473      C2474   1.400       .  A
C2473      C2478   1.396       .  A
C2473      H2480   1.084       .  S
C2474      C2475   1.414       .  A
C2475      C2476   1.409       .  A
C2475      N2482   1.436       .  S
C2476      C2477   1.401       .  A
C2476      H2481   1.084       .  S
C2477      C2478   1.408       .  A
C2478      N2479   1.433       .  S
N2479      H2483   1.046       .  S
N2479      H2484   1.046       .  S
N2482      H2485   1.045       .  S
N2482      H2486   1.046       .  S
C2487      C2488   1.411       .  A
C2487      C2492   1.401       .  A
C2487      H2494   1.083       .  S
C2488      C2489   1.412       .  A
C2489      C2490   1.391       .  A
C2489      N2496   1.433       .  S
C2490      C2491   1.398       .  A
C2490      H2495   1.085       .  S
C2491      C2492   1.401       .  A
C2492      N2493   1.436       .  S
N2493      H2497   1.046       .  S
N2493      H2498   1.045       .  S
N2496      H2499   1.046       .  S
N2496      H2500   1.046       .  S
C2501      C2502   1.404       .  A
C2501      C2506   1.389       .  A
C2501      H2508   1.084       .  S
C2502      C2503   1.411       .  A
C2503      C2504   1.405       .  A
C2503      N2510   1.431       .  S
C2504      C2505   1.402       .  A
C2504      H2509   1.082       .  S
C2505      C2506   1.411       .  A
C2506      N2507   1.434       .  S
N2507      H2511   1.045       .  S
N2507      H2512   1.045       .  S
N2510      H2513   1.045       .  S
N2510      H2514   1.046       .  S
C2515      C2516   1.402       .  A
C2515      C2520   1.398       .  A
C2515      H2522   1.084       .  S
C2516      C2517   1.403       .  A
C2517      C2518   1.397       .  A
C2517      N2524   1.432       .  S
C2518      C2519   1.400       .  A
C2518      H2523   1.081       .  S
C2519      C2520   1.404       .  A
C2520      N2521   1.432       .  S
N2521      H2525   1.045       .  S
N2521      H2526   1.046       .  S
N2524      H2527   1.046       .  S
N2524      H2528   1.045       .  S
C2529      C2530   1.404       .  A
C2529      C2534   1.389       .  A
C2529      H2536   1.084       .  S
C2530      C2531   1.408       .  A
C2531      C2532   1.393       .  A
C2531      N2538   1.438       .  S
C2532      C2533   1.402       .  A
C2532      H2537   1.085       .  S
C2533      C2534   1.409       .  A
C2534      N2535   1.437       .  S
N2535      H2539   1.044       .  S
N2535      H2540   1.042       .  S
N2538      H2541   1.046       .  S
N2538      H2542   1.046       .  S
C2543      C2544   1.406       .  A
C2543      C2548   1.393       .  A
C2543      H2550   1.084       .  S
C2544      C2545   1.405       .  A
C2545      C2546   1.388       .  A
C2545      N2552   1.433       .  S
C2546      C2547   1.399       .  A
C2546      H2551   1.085       .  S
C2547      C2548   1.404       .  A
C2548      N2549   1.432       .  S
N2549      H2553   1.046       .  S
N2549      H2554   1.045       .  S
N2552      H2555   1.046       .  S
N2552      H2556   1.046       .  S
C2557      C2558   1.401       .  A
C2557      C2562   1.380       .  A
C2557      H2564   1.084       .  S
C2558      C2559   1.411       .  A
C2559      C2560   1.401       .  A
C2559      N2566   1.438       .  S
C2560      C2561   1.399       .  A
C2560      H2565   1.081       .  S
C2561      C2562   1.406       .  A
C2562      N2563   1.432       .  S
N2563      H2567   1.043       .  S
N2563      H2568   1.045       .  S
N2566      H2569   1.046       .  S
N2566      H2570   1.046       .  S
C2571      C2572   1.397       .  A
C2571      C2576   1.404       .  A
C2571      H2578   1.084       .  S
C2572      C2573   1.415       .  A
C2573      C2574   1.387       .  A
C2573      N2580   1.433       .  S
C2574      C2575   1.402       .  A
C2574      H2579   1.084       .  S
C2575      C2576   1.418       .  A
C2576      N2577   1.432       .  S
N2577      H2581   1.046       .  S
N2577      H2582   1.045       .  S
N2580      H2583   1.045       .  S
N2580      H2584   1.044       .  S
C2585      C2586   1.401       .  A
C2585      C2590   1.407       .  A
C2585      H2592   1.084       .  S
C2586      C2587   1.405       .  A
C2587      C2588   1.385       .  A
C2587      N2594   1.435       .  S
C2588      C2589   1.404       .  A
C2588      H2593   1.083       .  S
C2589      C2590   1.413       .  A
C2590      N2591   1.432       .  S
N2591      H2595   1.045       .  S
N2591      H2596   1.046       .  S
N2594      H2597   1.046       .  S
N2594      H2598   1.046       .  S
C2599      C2600   1.403       .  A
C2599      C2604   1.391       .  A
C2599      H2606   1.083       .  S
C2600      C2601   1.420       .  A
C2601      C2602   1.396       .  A
C2601      N2608   1.433       .  S
C2602      C2603   1.394       .  A
C2602      H2607   1.084       .  S
C2603      C2604   1.413       .  A
C2604      N2605   1.434       .  S
N2605      H2609   1.044       .  S
N2605      H2610   1.044       .  S
N2608      H2611   1.046       .  S
N2608      H2612   1.046       .  S
C2613      C2614   1.399       .  A
C2613      C2618   1.386       .  A
C2613      H2620   1.084       .  S
C2614      C2615   1.418       .  A
C2615      C2616   1.401       .  A
C2615      N2622   1.432       .  S
C2616      C2617   1.399       .  A
C2616      H2621   1.084       .  S
C2617      C2618   1.406       .  A
C2618      N2619   1.434       .  S
N2619      H2623   1.044       .  S
N2619      H2624   1.046       .  S
N2622      H2625   1.046       .  S
N2622      H2626   1.045       .  S
C2627      C2628   1.401       .  A
C2627      C2632   1.388       .  A
C2627      H2634   1.085       .  S
C2628      C2629   1.409       .  A
C2629      C2630   1.399       .  A
C2629      N2636   1.432       .  S
C2630      C2631   1.399       .  A
C2630      H2635   1.084       .  S
C2631      C2632   1.410       .  A
C2632      N2633   1.434       .  S
N2633      H2637   1.045       .  S
N2633      H2638   1.045       .  S
N2636      H2639   1.046       .  S
N2636      H2640   1.046       .  S
C2641      C2642   1.400       .  A
C2641      C2646   1.388       .  A
C2641      H2648   1.084       .  S
C2642      C2643   1.409       .  A
C2643      C2644   1.405       .  A
C2643      N2650   1.437       .  S
C2644      C2645   1.401       .  A
C2644      H2649   1.084       .  S
C2645      C2646   1.409       .  A
C2646      N2647   1.434       .  S
N2647      H2651   1.045       .  S
N2647      H2652   1.045       .  S
N2650      H2653   1.045       .  S
N2650      H2654   1.046       .  S
C2655      C2656   1.399       .  A
C2655      C2660   1.389       .  A
C2655      H2662   1.084       .  S
C2656      C2657   1.411   1_455  A
C2657      C2658   1.399   1_655  A
C2657      N2664   1.432       .  S
C2658      C2659   1.399       .  A
C2658      H2663   1.084   1_455  S
C2659      C2660   1.415       .  A
C2660      N2661   1.434       .  S
N2661      H2665   1.045       .  S
N2661      H2666   1.044       .  S
N2664      H2667   1.045       .  S
N2664      H2668   1.046       .  S
C2669      C2670   1.407       .  A
C2669      C2674   1.404       .  A
C2669      H2676   1.084       .  S
C2670      C2671   1.405       .  A
C2671      C2672   1.387       .  A
C2671      N2678   1.434       .  S
C2672      C2673   1.402       .  A
C2672      H2677   1.085       .  S
C2673      C2674   1.404       .  A
C2674      N2675   1.436       .  S
N2675      H2679   1.046       .  S
N2675      H2680   1.045       .  S
N2678      H2681   1.046       .  S
N2678      H2682   1.046       .  S
C2683      C2684   1.400       .  A
C2683      C2688   1.388       .  A
C2683      H2690   1.085       .  S
C2684      C2685   1.408       .  A
C2685      C2686   1.405       .  A
C2685      N2692   1.432       .  S
C2686      C2687   1.403       .  A
C2686      H2691   1.083       .  S
C2687      C2688   1.407       .  A
C2688      N2689   1.434       .  S
N2689      H2693   1.046       .  S
N2689      H2694   1.046       .  S
N2692      H2695   1.046       .  S
N2692      H2696   1.046       .  S
C2697      C2698   1.408       .  A
C2697      C2702   1.401       .  A
C2697      H2704   1.084       .  S
C2698      C2699   1.415       .  A
C2699      C2700   1.387       .  A
C2699      N2706   1.431       .  S
C2700      C2701   1.393       .  A
C2700      H2705   1.085       .  S
C2701      C2702   1.410       .  A
C2702      N2703   1.435       .  S
N2703      H2707   1.046       .  S
N2703      H2708   1.044       .  S
N2706      H2709   1.046       .  S
N2706      H2710   1.046       .  S
C2711      C2712   1.409       .  A
C2711      C2716   1.404       .  A
C2711      H2718   1.084       .  S
C2712      C2713   1.410       .  A
C2713      C2714   1.399       .  A
C2713      N2720   1.439       .  S
C2714      C2715   1.402       .  A
C2714      H2719   1.084       .  S
C2715      C2716   1.403       .  A
C2716      N2717   1.437       .  S
N2717      H2721   1.046       .  S
N2717      H2722   1.046       .  S
N2720      H2723   1.046       .  S
N2720      H2724   1.046       .  S
C2725      C2726   1.401       .  A
C2725      C2730   1.396       .  A
C2725      H2732   1.084       .  S
C2726      C2727   1.410       .  A
C2727      C2728   1.392       .  A
C2727      N2734   1.432       .  S
C2728      C2729   1.395       .  A
C2728      H2733   1.085       .  S
C2729      C2730   1.411       .  A
C2730      N2731   1.432       .  S
N2731      H2735   1.045       .  S
N2731      H2736   1.045       .  S
N2734      H2737   1.046       .  S
N2734      H2738   1.046       .  S
C2739      C2740   1.409       .  A
C2739      C2744   1.390       .  A
C2739      H2746   1.081       .  S
C2740      C2741   1.413       .  A
C2741      C2742   1.403       .  A
C2741      N2748   1.432       .  S
C2742      C2743   1.400       .  A
C2742      H2747   1.084       .  S
C2743      C2744   1.402       .  A
C2744      N2745   1.440       .  S
N2745      H2749   1.046       .  S
N2745      H2750   1.045       .  S
N2748      H2751   1.046       .  S
N2748      H2752   1.045       .  S
C2753      C2754   1.401       .  A
C2753      C2758   1.400       .  A
C2753      H2760   1.084       .  S
C2754      C2755   1.406       .  A
C2755      C2756   1.394       .  A
C2755      N2762   1.433       .  S
C2756      C2757   1.403       .  A
C2756      H2761   1.084       .  S
C2757      C2758   1.417       .  A
C2758      N2759   1.438       .  S
N2759      H2763   1.046       .  S
N2759      H2764   1.044       .  S
N2762      H2765   1.046       .  S
N2762      H2766   1.045       .  S
C2767      C2768   1.417       .  A
C2767      C2772   1.396       .  A
C2767      H2774   1.082       .  S
C2768      C2769   1.414       .  A
C2769      C2770   1.392       .  A
C2769      N2776   1.434       .  S
C2770      C2771   1.406       .  A
C2770      H2775   1.084       .  S
C2771      C2772   1.393       .  A
C2772      N2773   1.432       .  S
N2773      H2777   1.046       .  S
N2773      H2778   1.046       .  S
N2776      H2779   1.046       .  S
N2776      H2780   1.043       .  S
C2781      C2782   1.400       .  A
C2781      C2786   1.385       .  A
C2781      H2788   1.084       .  S
C2782      C2783   1.416       .  A
C2783      C2784   1.394       .  A
C2783      N2790   1.433       .  S
C2784      C2785   1.397       .  A
C2784      H2789   1.083       .  S
C2785      C2786   1.410       .  A
C2786      N2787   1.434       .  S
N2787      H2791   1.045       .  S
N2787      H2792   1.045       .  S
N2790      H2793   1.045       .  S
N2790      H2794   1.044       .  S
C2795      C2796   1.396       .  A
C2795      C2800   1.394       .  A
C2795      H2802   1.084       .  S
C2796      C2797   1.412       .  A
C2797      C2798   1.394       .  A
C2797      N2804   1.439       .  S
C2798      C2799   1.404       .  A
C2798      H2803   1.084       .  S
C2799      C2800   1.413       .  A
C2800      N2801   1.433   1_565  S
N2801      H2805   1.046       .  S
N2801      H2806   1.046   1_545  S
N2804      H2807   1.043       .  S
N2804      H2808   1.046       .  S
C2809      C2810   1.405       .  A
C2809      C2814   1.400       .  A
C2809      H2816   1.084       .  S
C2810      C2811   1.416       .  A
C2811      C2812   1.383       .  A
C2811      N2818   1.434       .  S
C2812      C2813   1.398       .  A
C2812      H2817   1.085       .  S
C2813      C2814   1.400       .  A
C2814      N2815   1.432       .  S
N2815      H2819   1.046       .  S
N2815      H2820   1.045       .  S
N2818      H2821   1.045       .  S
N2818      H2822   1.043       .  S
C2823      C2824   1.402       .  A
C2823      C2828   1.386       .  A
C2823      H2830   1.085       .  S
C2824      C2825   1.402       .  A
C2825      C2826   1.395       .  A
C2825      N2832   1.432       .  S
C2826      C2827   1.410       .  A
C2826      H2831   1.084       .  S
C2827      C2828   1.409       .  A
C2828      N2829   1.433       .  S
N2829      H2833   1.043       .  S
N2829      H2834   1.045       .  S
N2832      H2835   1.045       .  S
N2832      H2836   1.046       .  S
C2837      C2838   1.401       .  A
C2837      C2842   1.392       .  A
C2837      H2844   1.084       .  S
C2838      C2839   1.417   1_545  A
C2839      C2840   1.402   1_565  A
C2839      N2846   1.432       .  S
C2840      C2841   1.396       .  A
C2840      H2845   1.084   1_545  S
C2841      C2842   1.407       .  A
C2842      N2843   1.433       .  S
N2843      H2847   1.046       .  S
N2843      H2848   1.046       .  S
N2846      H2849   1.046       .  S
N2846      H2850   1.046       .  S
C2851      C2852   1.403       .  A
C2851      C2856   1.398       .  A
C2851      H2858   1.084       .  S
C2852      C2853   1.405       .  A
C2853      C2854   1.393       .  A
C2853      N2860   1.432       .  S
C2854      C2855   1.410       .  A
C2854      H2859   1.084       .  S
C2855      C2856   1.407       .  A
C2856      N2857   1.432       .  S
N2857      H2861   1.046       .  S
N2857      H2862   1.046       .  S
N2860      H2863   1.044       .  S
N2860      H2864   1.044       .  S
C2865      C2866   1.402       .  A
C2865      C2870   1.383       .  A
C2865      H2872   1.084       .  S
C2866      C2867   1.409       .  A
C2867      C2868   1.410       .  A
C2867      N2874   1.431       .  S
C2868      C2869   1.406       .  A
C2868      H2873   1.084       .  S
C2869      C2870   1.411       .  A
C2870      N2871   1.434       .  S
N2871      H2875   1.045       .  S
N2871      H2876   1.042       .  S
N2874      H2877   1.045       .  S
N2874      H2878   1.046       .  S
C2879      C2880   1.413       .  A
C2879      C2884   1.399       .  A
C2879      H2886   1.083       .  S
C2880      C2881   1.409       .  A
C2881      C2882   1.396       .  A
C2881      N2888   1.432       .  S
C2882      C2883   1.401       .  A
C2882      H2887   1.084       .  S
C2883      C2884   1.399       .  A
C2884      N2885   1.438       .  S
N2885      H2889   1.045       .  S
N2885      H2890   1.045       .  S
N2888      H2891   1.046       .  S
N2888      H2892   1.046       .  S
C2893      C2894   1.404       .  A
C2893      C2898   1.398       .  A
C2893      H2900   1.084       .  S
C2894      C2895   1.400       .  A
C2895      C2896   1.393       .  A
C2895      N2902   1.432       .  S
C2896      C2897   1.401       .  A
C2896      H2901   1.081       .  S
C2897      C2898   1.404       .  A
C2898      N2899   1.438       .  S
N2899      H2903   1.046       .  S
N2899      H2904   1.045       .  S
N2902      H2905   1.046       .  S
N2902      H2906   1.045   1_554  S
C2907      C2908   1.403       .  A
C2907      C2912   1.386       .  A
C2907      H2914   1.085       .  S
C2908      C2909   1.406       .  A
C2909      C2910   1.398       .  A
C2909      N2916   1.432   1_554  S
C2910      C2911   1.400       .  A
C2910      H2915   1.084       .  S
C2911      C2912   1.408       .  A
C2912      N2913   1.434       .  S
N2913      H2917   1.045       .  S
N2913      H2918   1.045       .  S
N2916      H2919   1.045       .  S
N2916      H2920   1.046       .  S
C2921      C2922   1.408       .  A
C2921      C2926   1.401       .  A
C2921      H2928   1.084       .  S
C2922      C2923   1.413       .  A
C2923      C2924   1.396       .  A
C2923      N2930   1.433       .  S
C2924      C2925   1.400       .  A
C2924      H2929   1.085       .  S
C2925      C2926   1.400       .  A
C2926      N2927   1.429       .  S
N2927      H2931   1.044       .  S
N2927      H2932   1.046       .  S
N2930      H2933   1.046       .  S
N2930      H2934   1.046   1_556  S
C2935      C2936   1.406       .  A
C2935      C2940   1.402       .  A
C2935      H2942   1.084       .  S
C2936      C2937   1.400       .  A
C2937      C2938   1.400       .  A
C2937      N2944   1.431       .  S
C2938      C2939   1.413       .  A
C2938      H2943   1.084       .  S
C2939      C2940   1.412       .  A
C2940      N2941   1.437       .  S
N2941      H2945   1.046       .  S
N2941      H2946   1.045   1_554  S
N2944      H2947   1.046       .  S
N2944      H2948   1.044       .  S
C2949      C2950   1.400       .  A
C2949      C2954   1.396       .  A
C2949      H2956   1.084       .  S
C2950      C2951   1.408       .  A
C2951      C2952   1.402       .  A
C2951      N2958   1.432       .  S
C2952      C2953   1.401       .  A
C2952      H2957   1.084       .  S
C2953      C2954   1.408       .  A
C2954      N2955   1.433       .  S
N2955      H2959   1.046       .  S
N2955      H2960   1.046       .  S
N2958      H2961   1.045       .  S
N2958      H2962   1.046       .  S
C2963      C2964   1.402       .  A
C2963      C2968   1.393       .  A
C2963      H2970   1.084       .  S
C2964      C2965   1.412       .  A
C2965      C2966   1.411       .  A
C2965      N2972   1.437       .  S
C2966      C2967   1.408       .  A
C2966      H2971   1.083       .  S
C2967      C2968   1.411       .  A
C2968      N2969   1.433   1_556  S
N2969      H2973   1.046       .  S
N2969      H2974   1.046       .  S
N2972      H2975   1.045       .  S
N2972      H2976   1.046       .  S
C2977      C2978   1.399       .  A
C2977      C2982   1.401       .  A
C2977      H2984   1.084       .  S
C2978      C2979   1.403       .  A
C2979      C2980   1.396       .  A
C2979      N2986   1.439       .  S
C2980      C2981   1.407       .  A
C2980      H2985   1.083       .  S
C2981      C2982   1.413       .  A
C2982      N2983   1.438       .  S
N2983      H2987   1.046       .  S
N2983      H2988   1.046       .  S
N2986      H2989   1.046       .  S
N2986      H2990   1.046       .  S
C2991      C2992   1.407       .  A
C2991      C2996   1.393       .  A
C2991      H2998   1.083       .  S
C2992      C2993   1.422       .  A
C2993      C2994   1.410       .  A
C2993      N3000   1.437       .  S
C2994      C2995   1.399       .  A
C2994      H2999   1.084       .  S
C2995      C2996   1.407       .  A
C2996      N2997   1.434       .  S
N2997      H3001   1.046       .  S
N2997      H3002   1.046       .  S
N3000      H3003   1.044       .  S
N3000      H3004   1.046       .  S
C3005      C3006   1.407       .  A
C3005      C3010   1.399       .  A
C3005      H3012   1.084       .  S
C3006      C3007   1.407       .  A
C3007      C3008   1.396       .  A
C3007      N3014   1.438       .  S
C3008      C3009   1.405       .  A
C3008      H3013   1.084       .  S
C3009      C3010   1.411       .  A
C3010      N3011   1.438       .  S
N3011      H3015   1.045       .  S
N3011      H3016   1.044       .  S
N3014      H3017   1.046       .  S
N3014      H3018   1.045       .  S
C3019      C3020   1.399       .  A
C3019      C3024   1.408       .  A
C3019      H3026   1.084       .  S
C3020      C3021   1.417       .  A
C3021      C3022   1.388       .  A
C3021      N3028   1.433       .  S
C3022      C3023   1.400       .  A
C3022      H3027   1.083       .  S
C3023      C3024   1.419       .  A
C3024      N3025   1.432       .  S
N3025      H3029   1.046       .  S
N3025      H3030   1.046       .  S
N3028      H3031   1.043       .  S
N3028      H3032   1.043       .  S
C3033      C3034   1.413       .  A
C3033      C3038   1.402       .  A
C3033      H3040   1.083       .  S
C3034      C3035   1.411   1_554  A
C3035      C3036   1.397       .  A
C3035      N3042   1.438       .  S
C3036      C3037   1.406       .  A
C3036      H3041   1.084       .  S
C3037      C3038   1.409   1_556  A
C3038      N3039   1.438       .  S
N3039      H3043   1.045       .  S
N3039      H3044   1.044       .  S
N3042      H3045   1.046       .  S
N3042      H3046   1.045       .  S
C3047      C3048   1.406       .  A
C3047      C3052   1.396       .  A
C3047      H3054   1.084   1_556  S
C3048      C3049   1.418       .  A
C3049      C3050   1.405       .  A
C3049      N3056   1.437       .  S
C3050      C3051   1.398       .  A
C3050      H3055   1.084       .  S
C3051      C3052   1.406       .  A
C3052      N3053   1.439       .  S
N3053      H3057   1.046       .  S
N3053      H3058   1.045       .  S
N3056      H3059   1.046       .  S
N3056      H3060   1.046       .  S
C3061      C3062   1.402       .  A
C3061      C3066   1.392       .  A
C3061      H3068   1.084       .  S
C3062      C3063   1.422       .  A
C3063      C3064   1.406       .  A
C3063      N3070   1.438       .  S
C3064      C3065   1.397       .  A
C3064      H3069   1.084       .  S
C3065      C3066   1.407       .  A
C3066      N3067   1.433       .  S
N3067      H3071   1.044       .  S
N3067      H3072   1.046       .  S
N3070      H3073   1.046       .  S
N3070      H3074   1.046       .  S
C3075      C3076   1.403       .  A
C3075      C3080   1.388       .  A
C3075      H3082   1.084       .  S
C3076      C3077   1.409       .  A
C3077      C3078   1.407       .  A
C3077      N3084   1.432       .  S
C3078      C3079   1.406       .  A
C3078      H3083   1.083       .  S
C3079      C3080   1.413       .  A
C3080      N3081   1.433       .  S
N3081      H3085   1.043       .  S
N3081      H3086   1.045       .  S
N3084      H3087   1.045       .  S
N3084      H3088   1.046       .  S
C3089      C3090   1.402       .  A
C3089      C3094   1.387       .  A
C3089      H3096   1.084       .  S
C3090      C3091   1.411       .  A
C3091      C3092   1.399       .  A
C3091      N3098   1.432       .  S
C3092      C3093   1.399       .  A
C3092      H3097   1.084       .  S
C3093      C3094   1.409       .  A
C3094      N3095   1.434       .  S
N3095      H3099   1.045       .  S
N3095      H3100   1.045       .  S
N3098      H3101   1.046       .  S
N3098      H3102   1.046       .  S
C3103      C3104   1.399       .  A
C3103      C3108   1.395       .  A
C3103      H3110   1.084       .  S
C3104      C3105   1.414       .  A
C3105      C3106   1.398       .  A
C3105      N3112   1.432       .  S
C3106      C3107   1.398       .  A
C3106      H3111   1.084       .  S
C3107      C3108   1.409       .  A
C3108      N3109   1.426       .  S
N3109      H3113   1.045       .  S
N3109      H3114   1.042       .  S
N3112      H3115   1.046       .  S
N3112      H3116   1.046       .  S
C3117      C3118   1.409       .  A
C3117      C3122   1.397       .  A
C3117      H3124   1.083       .  S
C3118      C3119   1.410       .  A
C3119      C3120   1.390       .  A
C3119      N3126   1.433       .  S
C3120      C3121   1.401       .  A
C3120      H3125   1.084       .  S
C3121      C3122   1.409       .  A
C3122      N3123   1.438       .  S
N3123      H3127   1.045       .  S
N3123      H3128   1.044       .  S
N3126      H3129   1.046       .  S
N3126      H3130   1.046       .  S
C3131      C3132   1.401       .  A
C3131      C3136   1.395       .  A
C3131      H3138   1.084       .  S
C3132      C3133   1.407       .  A
C3133      C3134   1.391       .  A
C3133      N3140   1.439   1_554  S
C3134      C3135   1.399       .  A
C3134      H3139   1.084       .  S
C3135      C3136   1.409       .  A
C3136      N3137   1.432       .  S
N3137      H3141   1.045       .  S
N3137      H3142   1.046       .  S
N3140      H3143   1.045       .  S
N3140      H3144   1.046       .  S
C3145      C3146   1.400       .  A
C3145      C3150   1.396       .  A
C3145      H3152   1.084       .  S
C3146      C3147   1.399       .  A
C3147      C3148   1.396   1_556  A
C3147      N3154   1.432       .  S
C3148      C3149   1.406   1_554  A
C3148      H3153   1.083       .  S
C3149      C3150   1.408       .  A
C3150      N3151   1.433       .  S
N3151      H3155   1.046       .  S
N3151      H3156   1.045       .  S
N3154      H3157   1.046       .  S
N3154      H3158   1.045   1_556  S
C3159      C3160   1.396       .  A
C3159      C3164   1.386       .  A
C3159      H3166   1.085       .  S
C3160      C3161   1.405       .  A
C3161      C3162   1.392       .  A
C3161      N3168   1.438       .  S
C3162      C3163   1.410       .  A
C3162      H3167   1.083       .  S
C3163      C3164   1.411       .  A
C3164      N3165   1.432       .  S
N3165      H3169   1.046       .  S
N3165      H3170   1.046       .  S
N3168      H3171   1.044       .  S
N3168      H3172   1.045       .  S
C3173      C3174   1.408       .  A
C3173      C3178   1.392       .  A
C3173      H3180   1.084       .  S
C3174      C3175   1.411       .  A
C3175      C3176   1.390       .  A
C3175      N3182   1.433       .  S
C3176      C3177   1.398       .  A
C3176      H3181   1.085       .  S
C3177      C3178   1.404       .  A
C3178      N3179   1.433       .  S
N3179      H3183   1.046       .  S
N3179      H3184   1.045       .  S
N3182      H3185   1.046       .  S
N3182      H3186   1.046       .  S
C3187      C3188   1.401       .  A
C3187      C3192   1.386       .  A
C3187      H3194   1.084       .  S
C3188      C3189   1.411       .  A
C3189      C3190   1.397       .  A
C3189      N3196   1.432       .  S
C3190      C3191   1.399       .  A
C3190      H3195   1.084       .  S
C3191      C3192   1.410       .  A
C3192      N3193   1.434       .  S
N3193      H3197   1.044       .  S
N3193      H3198   1.046       .  S
N3196      H3199   1.046       .  S
N3196      H3200   1.046       .  S
C3201      C3202   1.405       .  A
C3201      C3206   1.389       .  A
C3201      H3208   1.085       .  S
C3202      C3203   1.401       .  A
C3203      C3204   1.394       .  A
C3203      N3210   1.432       .  S
C3204      C3205   1.405       .  A
C3204      H3209   1.084       .  S
C3205      C3206   1.407       .  A
C3206      N3207   1.431       .  S
N3207      H3211   1.040       .  S
N3207      H3212   1.043       .  S
N3210      H3213   1.045       .  S
N3210      H3214   1.046       .  S
C3215      C3216   1.402       .  A
C3215      C3220   1.390       .  A
C3215      H3222   1.085       .  S
C3216      C3217   1.404       .  A
C3217      C3218   1.392       .  A
C3217      N3224   1.431   1_565  S
C3218      C3219   1.406       .  A
C3218      H3223   1.084   1_565  S
C3219      C3220   1.404       .  A
C3220      N3221   1.433       .  S
N3221      H3225   1.046       .  S
N3221      H3226   1.046       .  S
N3224      H3227   1.045       .  S
N3224      H3228   1.043       .  S
C3229      C3230   1.400       .  A
C3229      C3234   1.385       .  A
C3229      H3236   1.085       .  S
C3230      C3231   1.413       .  A
C3231      C3232   1.399       .  A
C3231      N3238   1.432       .  S
C3232      C3233   1.401       .  A
C3232      H3237   1.084       .  S
C3233      C3234   1.409       .  A
C3234      N3235   1.433       .  S
N3235      H3239   1.044       .  S
N3235      H3240   1.045       .  S
N3238      H3241   1.045       .  S
N3238      H3242   1.045   1_545  S
C3243      C3244   1.402       .  A
C3243      C3248   1.390       .  A
C3243      H3250   1.083       .  S
C3244      C3245   1.419       .  A
C3245      C3246   1.400       .  A
C3245      N3252   1.433       .  S
C3246      C3247   1.394       .  A
C3246      H3251   1.084       .  S
C3247      C3248   1.414       .  A
C3248      N3249   1.434       .  S
N3249      H3253   1.045       .  S
N3249      H3254   1.044       .  S
N3252      H3255   1.046       .  S
N3252      H3256   1.046       .  S
C3257      C3258   1.402       .  A
C3257      C3262   1.392       .  A
C3257      H3264   1.084       .  S
C3258      C3259   1.400       .  A
C3259      C3260   1.391       .  A
C3259      N3266   1.433       .  S
C3260      C3261   1.409       .  A
C3260      H3265   1.083       .  S
C3261      C3262   1.407       .  A
C3262      N3263   1.432       .  S
N3263      H3267   1.045       .  S
N3263      H3268   1.045       .  S
N3266      H3269   1.045       .  S
N3266      H3270   1.046       .  S
C3271      C3272   1.402       .  A
C3271      C3276   1.392       .  A
C3271      H3278   1.084   1_565  S
C3272      C3273   1.411       .  A
C3273      C3274   1.399       .  A
C3273      N3280   1.432       .  S
C3274      C3275   1.397       .  A
C3274      H3279   1.084       .  S
C3275      C3276   1.412       .  A
C3276      N3277   1.434       .  S
N3277      H3281   1.045       .  S
N3277      H3282   1.045       .  S
N3280      H3283   1.046       .  S
N3280      H3284   1.045       .  S
C3285      C3286   1.399       .  A
C3285      C3290   1.389       .  A
C3285      H3292   1.083       .  S
C3286      C3287   1.415   1_565  A
C3287      C3288   1.405       .  A
C3287      N3294   1.438       .  S
C3288      C3289   1.399   1_545  A
C3288      H3293   1.084       .  S
C3289      C3290   1.416       .  A
C3290      N3291   1.433       .  S
N3291      H3295   1.042       .  S
N3291      H3296   1.044       .  S
N3294      H3297   1.046       .  S
N3294      H3298   1.046       .  S
C3299      C3300   1.401       .  A
C3299      C3304   1.408       .  A
C3299      H3306   1.084       .  S
C3300      C3301   1.407       .  A
C3301      C3302   1.387       .  A
C3301      N3308   1.434       .  S
C3302      C3303   1.401       .  A
C3302      H3307   1.084       .  S
C3303      C3304   1.414       .  A
C3304      N3305   1.437       .  S
N3305      H3309   1.046       .  S
N3305      H3310   1.045       .  S
N3308      H3311   1.046       .  S
N3308      H3312   1.046   1_545  S
C3313      C3314   1.393       .  A
C3313      C3318   1.391       .  A
C3313      H3320   1.085       .  S
C3314      C3315   1.402       .  A
C3315      C3316   1.397       .  A
C3315      N3322   1.432       .  S
C3316      C3317   1.407       .  A
C3316      H3321   1.084       .  S
C3317      C3318   1.417       .  A
C3318      N3319   1.431       .  S
N3319      H3323   1.046       .  S
N3319      H3324   1.046       .  S
N3322      H3325   1.045       .  S
N3322      H3326   1.044       .  S
C3327      C3328   1.409       .  A
C3327      C3332   1.393       .  A
C3327      H3334   1.083       .  S
C3328      C3329   1.415       .  A
C3329      C3330   1.407       .  A
C3329      N3336   1.432       .  S
C3330      C3331   1.402       .  A
C3330      H3335   1.084       .  S
C3331      C3332   1.402       .  A
C3332      N3333   1.433       .  S
N3333      H3337   1.046       .  S
N3333      H3338   1.046       .  S
N3336      H3339   1.045       .  S
N3336      H3340   1.046       .  S
C3341      C3342   1.406       .  A
C3341      C3346   1.402       .  A
C3341      H3348   1.084       .  S
C3342      C3343   1.406       .  A
C3343      C3344   1.399       .  A
C3343      N3350   1.433       .  S
C3344      C3345   1.404       .  A
C3344      H3349   1.084       .  S
C3345      C3346   1.413       .  A
C3346      N3347   1.437       .  S
N3347      H3351   1.046       .  S
N3347      H3352   1.044       .  S
N3350      H3353   1.046       .  S
N3350      H3354   1.046       .  S
C3355      C3356   1.402       .  A
C3355      C3360   1.394       .  A
C3355      H3362   1.085       .  S
C3356      C3357   1.402       .  A
C3357      C3358   1.405       .  A
C3357      N3364   1.437       .  S
C3358      C3359   1.410       .  A
C3358      H3363   1.084       .  S
C3359      C3360   1.408       .  A
C3360      N3361   1.433       .  S
N3361      H3365   1.046       .  S
N3361      H3366   1.045       .  S
N3364      H3367   1.046       .  S
N3364      H3368   1.046       .  S
C3369      C3370   1.405       .  A
C3369      C3374   1.392       .  A
C3369      H3376   1.084       .  S
C3370      C3371   1.402       .  A
C3371      C3372   1.396       .  A
C3371      N3378   1.432       .  S
C3372      C3373   1.405       .  A
C3372      H3377   1.084       .  S
C3373      C3374   1.397       .  A
C3374      N3375   1.430       .  S
N3375      H3379   1.045   1_565  S
N3375      H3380   1.045       .  S
N3378      H3381   1.046       .  S
N3378      H3382   1.046       .  S
C3383      C3384   1.399       .  A
C3383      C3388   1.400       .  A
C3383      H3390   1.084       .  S
C3384      C3385   1.409       .  A
C3385      C3386   1.390       .  A
C3385      N3392   1.433       .  S
C3386      C3387   1.395       .  A
C3386      H3391   1.084       .  S
C3387      C3388   1.408       .  A
C3388      N3389   1.437       .  S
N3389      H3393   1.046       .  S
N3389      H3394   1.045       .  S
N3392      H3395   1.046       .  S
N3392      H3396   1.045   1_455  S
C3397      C3398   1.403       .  A
C3397      C3402   1.390       .  A
C3397      H3404   1.082       .  S
C3398      C3399   1.410       .  A
C3399      C3400   1.397       .  A
C3399      N3406   1.438       .  S
C3400      C3401   1.398       .  A
C3400      H3405   1.084       .  S
C3401      C3402   1.410       .  A
C3402      N3403   1.440       .  S
N3403      H3407   1.045       .  S
N3403      H3408   1.043       .  S
N3406      H3409   1.045       .  S
N3406      H3410   1.046       .  S
C3411      C3412   1.399       .  A
C3411      C3416   1.393       .  A
C3411      H3418   1.084       .  S
C3412      C3413   1.411       .  A
C3413      C3414   1.392       .  A
C3413      N3420   1.433       .  S
C3414      C3415   1.399       .  A
C3414      H3419   1.084       .  S
C3415      C3416   1.405       .  A
C3416      N3417   1.433       .  S
N3417      H3421   1.046       .  S
N3417      H3422   1.046       .  S
N3420      H3423   1.044       .  S
N3420      H3424   1.045       .  S
C3425      C3426   1.408       .  A
C3425      C3430   1.391       .  A
C3425      H3432   1.083       .  S
C3426      C3427   1.413       .  A
C3427      C3428   1.401       .  A
C3427      N3434   1.432   1_655  S
C3428      C3429   1.399       .  A
C3428      H3433   1.079   1_655  S
C3429      C3430   1.401       .  A
C3430      N3431   1.434       .  S
N3431      H3435   1.045       .  S
N3431      H3436   1.046       .  S
N3434      H3437   1.046       .  S
N3434      H3438   1.046       .  S
C3439      C3440   1.400       .  A
C3439      C3444   1.391       .  A
C3439      H3446   1.084       .  S
C3440      C3441   1.418       .  A
C3441      C3442   1.404       .  A
C3441      N3448   1.438       .  S
C3442      C3443   1.397       .  A
C3442      H3447   1.084       .  S
C3443      C3444   1.416       .  A
C3444      N3445   1.433       .  S
N3445      H3449   1.045       .  S
N3445      H3450   1.044       .  S
N3448      H3451   1.046       .  S
N3448      H3452   1.046       .  S
C3453      C3454   1.402       .  A
C3453      C3458   1.386       .  A
C3453      H3460   1.084       .  S
C3454      C3455   1.416       .  A
C3455      C3456   1.407       .  A
C3455      N3462   1.437       .  S
C3456      C3457   1.401       .  A
C3456      H3461   1.084       .  S
C3457      C3458   1.413       .  A
C3458      N3459   1.435       .  S
N3459      H3463   1.044       .  S
N3459      H3464   1.045       .  S
N3462      H3465   1.045       .  S
N3462      H3466   1.046       .  S
C3467      C3468   1.395       .  A
C3467      C3472   1.399       .  A
C3467      H3474   1.084       .  S
C3468      C3469   1.417       .  A
C3469      C3470   1.394       .  A
C3469      N3476   1.439       .  S
C3470      C3471   1.403       .  A
C3470      H3475   1.084       .  S
C3471      C3472   1.417       .  A
C3472      N3473   1.431   1_556  S
N3473      H3477   1.046       .  S
N3473      H3478   1.046       .  S
N3476      H3479   1.041       .  S
N3476      H3480   1.045       .  S
C3481      C3482   1.408       .  A
C3481      C3486   1.402       .  A
C3481      H3488   1.084   1_565  S
C3482      C3483   1.406       .  A
C3483      C3484   1.388       .  A
C3483      N3490   1.432       .  S
C3484      C3485   1.400       .  A
C3484      H3489   1.085       .  S
C3485      C3486   1.409       .  A
C3486      N3487   1.432   1_565  S
N3487      H3491   1.045       .  S
N3487      H3492   1.045       .  S
N3490      H3493   1.046       .  S
N3490      H3494   1.046       .  S
C3495      C3496   1.401       .  A
C3495      C3500   1.391       .  A
C3495      H3502   1.085       .  S
C3496      C3497   1.412       .  A
C3497      C3498   1.409       .  A
C3497      N3504   1.437       .  S
C3498      C3499   1.404       .  A
C3498      H3503   1.084       .  S
C3499      C3500   1.414       .  A
C3500      N3501   1.433       .  S
N3501      H3505   1.045       .  S
N3501      H3506   1.043       .  S
N3504      H3507   1.046       .  S
N3504      H3508   1.046       .  S
C3509      C3510   1.400       .  A
C3509      C3514   1.392       .  A
C3509      H3516   1.085       .  S
C3510      C3511   1.404       .  A
C3511      C3512   1.397       .  A
C3511      N3518   1.432       .  S
C3512      C3513   1.412       .  A
C3512      H3517   1.083       .  S
C3513      C3514   1.412       .  A
C3514      N3515   1.437       .  S
N3515      H3519   1.046       .  S
N3515      H3520   1.046       .  S
N3518      H3521   1.046       .  S
N3518      H3522   1.045       .  S
C3523      C3524   1.401       .  A
C3523      C3528   1.396       .  A
C3523      H3530   1.083       .  S
C3524      C3525   1.420       .  A
C3525      C3526   1.402       .  A
C3525      N3532   1.431       .  S
C3526      C3527   1.394       .  A
C3526      H3531   1.082       .  S
C3527      C3528   1.411       .  A
C3528      N3529   1.433       .  S
N3529      H3533   1.045       .  S
N3529      H3534   1.045       .  S
N3532      H3535   1.046       .  S
N3532      H3536   1.046       .  S
