geometry optimzed in LAMMPS
_audit_creation_date              2020-11-30 
_audit_creation_method            'lammps2cif' 
_symmetry_space_group_name_H-M    'P1' 
_symmetry_Int_Tables_number       1 
_symmetry_cell_setting            triclinic 
loop_ 
_symmetry_equiv_pos_as_xyz 
  x,y,z 
_cell_length_a                    30.94269621 
_cell_length_b                    31.341214194778917 
_cell_length_c                    31.56515256666567 
_cell_angle_alpha                 89.95113672901257 
_cell_angle_beta                  89.78744946173722 
_cell_angle_gamma                 89.94790515629933 
loop_ 
_atom_site_label 
_atom_site_type_symbol 
_atom_site_fract_x 
_atom_site_fract_y 
_atom_site_fract_z 
_atom_site_charge 
O1          O  0.57745122  0.96173074  0.46194816    -0.80500
O2          O  0.41739417  0.06106420  0.48920628    -0.80600
O3          O  0.49230253  0.94965322  0.44248342    -0.80600
O4          O  0.55267500  0.07971365  0.43525212    -0.80500
O5          O  0.43339194  0.98334240  0.45782552    -0.80600
O6          O  0.60463804  0.04432044  0.46964745    -0.80600
O7          O  0.46469225  0.08716587  0.44401858    -0.80500
O8          O  0.54604160  0.90646652  0.49258533    -0.80600
C9          C  0.57454878  0.92086421  0.46694497     1.09100
C10         C  0.42591566  0.08175140  0.45526166     1.09000
C11         C  0.45327653  0.95717485  0.43451509     1.09200
C12         C  0.59065084  0.06417267  0.43682499     1.09000
O13         O  0.56714994  0.04827330  0.55695032    -0.80500
O14         O  0.40918562  0.98493810  0.53801754    -0.80600
O15         O  0.54851954  0.96422138  0.55682366    -0.80600
O16         O  0.47554442  0.10469408  0.53413935    -0.80500
O17         O  0.46933584  0.04132481  0.56394577    -0.80600
O18         O  0.61520074  0.97980995  0.53722885    -0.80600
O19         O  0.56576423  0.10496941  0.51879250    -0.80500
O20         O  0.46280817  0.93716117  0.53050209    -0.80600
Co21       Co  0.56809558  0.00708989  0.50852141     1.51500
Co22       Co  0.45460620  0.01216384  0.51083685     1.51700
Co23       Co  0.51861156  0.96146105  0.49849243     1.51600
Co24       Co  0.51413556  0.09041669  0.48335947     1.51500
O25         O  0.51024815  0.02577393  0.48892385    -1.42500
C26         C  0.57956368  0.08600267  0.55111405     1.09100
C27         C  0.42407949  0.94754608  0.54415298     1.09200
C28         C  0.58984006  0.96107058  0.56323609     1.09100
C29         C  0.46582595  0.08140276  0.56615931     1.09100
O30         O  0.94237011  0.55450439  0.52395750    -0.80500
O31         O  0.94647374  0.42854088  0.47255943    -0.80600
O32         O  0.93844668  0.52672758  0.43463033    -0.80600
O33         O  0.94982694  0.45853071  0.56080864    -0.80500
O34         O  0.96148581  0.47062690  0.40399832    -0.80600
O35         O  0.96922486  0.51506486  0.59311012    -0.80600
O36         O  0.98120585  0.39496740  0.51965565    -0.80500
O37         O  0.96624791  0.59356064  0.47413813    -0.80600
C38         C  0.94033092  0.58879631  0.50504986     1.09100
C39         C  0.95039546  0.39548369  0.49311533     1.09000
C40         C  0.93326815  0.50005301  0.40646573     1.09200
C41         C  0.94627008  0.48120797  0.59238290     1.09000
O42         O  0.06028786  0.53585716  0.55929892    -0.80500
O43         O  0.05831437  0.46312727  0.43002976    -0.80600
O44         O  0.05649452  0.56154855  0.45450688    -0.80600
O45         O  0.06842213  0.44452845  0.52573640    -0.80500
O46         O  0.04465507  0.40122230  0.48032383    -0.80600
O47         O  0.03347211  0.59463897  0.50992771    -0.80600
O48         O  0.03976594  0.48162666  0.59431379    -0.80500
O49         O  0.02702904  0.51060610  0.39301345    -0.80600
Co50       Co  0.00105742  0.54502044  0.54178996     1.51500
Co51       Co  0.00258758  0.44614726  0.45131993     1.51700
Co52       Co  0.99793501  0.54292478  0.44442001     1.51600
Co53       Co  0.00923365  0.45117206  0.54357046     1.51500
O54         O  0.00341967  0.49713767  0.49491522    -1.42500
C55         C  0.06479862  0.51356422  0.59127674     1.09100
C56         C  0.05503521  0.48078434  0.39553079     1.09200
C57         C  0.05922159  0.59311040  0.47811343     1.09100
C58         C  0.07291042  0.40972428  0.50845837     1.09100
O59         O  0.41085121  0.47925602  0.95684750    -0.80500
O60         O  0.58529333  0.47428939  0.05614854    -0.80600
O61         O  0.52146525  0.42409685  0.95406556    -0.80600
O62         O  0.48236864  0.42651250  0.04524366    -0.80500
O63         O  0.58355098  0.45192817  0.97179864    -0.80600
O64         O  0.42057147  0.46089596  0.04025339    -0.80600
O65         O  0.54018083  0.45290857  0.10704948    -0.80500
O66         O  0.45815462  0.44838381  0.91555910    -0.80600
C67         C  0.41984812  0.45458466  0.92616514     1.09100
C68         C  0.57854235  0.45536150  0.09215754     1.09000
C69         C  0.56153125  0.42019273  0.95886364     1.09200
C70         C  0.44149517  0.42612328  0.04685368     1.09000
O71         O  0.44611368  0.55145470  0.05361252    -0.80500
O72         O  0.56619713  0.54269556  0.94865188    -0.80600
O73         O  0.47462700  0.53315458  0.91343838    -0.80600
O74         O  0.53558087  0.53509130  0.08469413    -0.80500
O75         O  0.56550091  0.56309939  0.02949846    -0.80600
O76         O  0.44345258  0.56434673  0.96866678    -0.80600
O77         O  0.46007503  0.50025116  0.09775131    -0.80500
O78         O  0.55215579  0.49227643  0.90452297    -0.80600
Co79       Co  0.43553274  0.51386756  0.00509745     1.51500
Co80       Co  0.56897938  0.50808633  0.00136964     1.51700
Co81       Co  0.50185955  0.48175855  0.94244130     1.51600
Co82       Co  0.51114865  0.47993844  0.06099680     1.51500
O83         O  0.50090147  0.50167995  0.00272232    -1.42500
C84         C  0.44244920  0.53638680  0.09032243     1.09100
C85         C  0.57237389  0.52591172  0.91287766     1.09200
C86         C  0.45515187  0.56509673  0.93014915     1.09100
C87         C  0.55527680  0.56588811  0.06772194     1.09100
C88         C  0.63572095  0.84353178  0.77981169     0.79800
N89         N  0.66174709  0.80863996  0.77609035    -0.78500
C90         C  0.67679956  0.79679026  0.73715516     0.82300
N91         N  0.66613323  0.82035036  0.70237317    -0.78400
C92         C  0.63978189  0.85479543  0.70608314     0.82400
N93         N  0.62532641  0.86643780  0.74485467    -0.80200
C94         C  0.74294947  0.69943790  0.75753694     0.79800
N95         N  0.76914781  0.69929868  0.72269869    -0.78500
C96         C  0.76427381  0.72997878  0.69261239     0.82300
N97         N  0.73393358  0.76076556  0.69792979    -0.78400
C98         C  0.70785983  0.76135091  0.73238585     0.82400
N99         N  0.71229330  0.73044260  0.76227489    -0.80200
C100        C  0.83853900  0.70820242  0.60168123     0.79800
N101        N  0.84764232  0.74869782  0.59015380    -0.78500
C102        C  0.83043606  0.78189484  0.61135141     0.82300
N103        N  0.80394373  0.77495948  0.64456970    -0.78400
C104        C  0.79429769  0.73462506  0.65684227     0.82400
N105        N  0.81208082  0.70073839  0.63574955    -0.80200
C106        C  0.78651778  0.62441110  0.83800383     0.79800
N107        N  0.78472418  0.65544958  0.80777132    -0.78500
C108        C  0.74624061  0.66545942  0.78934408     0.82300
N109        N  0.70976311  0.64485881  0.80151978    -0.78400
C110        C  0.71124557  0.61383127  0.83134227     0.82400
N111        N  0.74968664  0.60370448  0.84955092    -0.80200
C112        C  0.28081989  0.21764951  0.74638948     0.79800
N113        N  0.25470370  0.22180384  0.71181431    -0.78500
C114        C  0.22434439  0.25354873  0.70992967     0.82300
N115        N  0.21964865  0.28060735  0.74337460    -0.78400
C116        C  0.24552292  0.27655688  0.77795409     0.82400
N117        N  0.27604041  0.24532318  0.77911823    -0.80200
C118        C  0.28088737  0.35580002  0.85662132     0.79800
N119        N  0.28087115  0.32713170  0.82456691    -0.78500
C120        C  0.24360940  0.30763266  0.81274476     0.82300
N121        N  0.20574966  0.31711708  0.83318773    -0.78400
C122        C  0.20615630  0.34470391  0.86664668     0.82400
N123        N  0.24348850  0.36407868  0.87735590    -0.80200
C124        C  0.35902423  0.13719374  0.78845075     0.79800
N125        N  0.32698681  0.16710010  0.78665407    -0.78500
C126        C  0.31476698  0.18398366  0.74853664     0.82300
N127        N  0.33547352  0.17121294  0.71254480    -0.78400
C128        C  0.36794341  0.14183694  0.71372602     0.82400
N129        N  0.37910417  0.12502943  0.75203608    -0.80200
C130        C  0.13559768  0.21783153  0.64080458     0.79800
N131        N  0.16694328  0.21876345  0.67062768    -0.78500
C132        C  0.19211507  0.25387171  0.67526596     0.82300
N133        N  0.18629824  0.28822078  0.64873630    -0.78400
C134        C  0.15567437  0.28643388  0.61735658     0.82400
N135        N  0.13091796  0.25111448  0.61412969    -0.80200
O136        O  0.56005949  0.97966702  0.90834292    -0.80500
O137        O  0.46103199  0.99097511  0.08627151    -0.80600
O138        O  0.55154346  0.92692671  0.03954435    -0.80600
O139        O  0.46199804  0.92736739  0.95922553    -0.80500
O140        O  0.54583707  0.97430845  0.08997896    -0.80600
O141        O  0.47365279  0.97004557  0.90558603    -0.80600
O142        O  0.45471433  0.93671303  0.04501003    -0.80500
O143        O  0.55938563  0.92881846  0.95442575    -0.80600
C144        C  0.56874754  0.94150364  0.91795165     1.09100
C145        C  0.44854735  0.95313746  0.08083611     1.09000
C146        C  0.55547324  0.93629138  0.07814074     1.09200
C147        C  0.46105370  0.93360519  0.91968776     1.09000
O148        O  0.46677964  0.05773987  0.94604982    -0.80500
O149        O  0.56065369  0.05715959  0.04354673    -0.80600
O150        O  0.60482006  0.01379760  0.96142985    -0.80600
O151        O  0.41804231  0.02441705  0.03122744    -0.80500
O152        O  0.47415261  0.06632354  0.03480027    -0.80600
O153        O  0.55267694  0.06024587  0.95340705    -0.80600
O154        O  0.41900649  0.00879403  0.94612015    -0.80500
O155        O  0.60329401  0.00376920  0.04691085    -0.80600
Co156      Co  0.51279894  0.01635846  0.93385527     1.51500
Co157      Co  0.51071053  0.02128337  0.05812916     1.51700
Co158      Co  0.57405015  0.96930185  0.99986827     1.51600
Co159      Co  0.44444545  0.97490612  0.99590295     1.51500
O160        O  0.51043591  0.99451708  0.99699068    -1.42500
C161        C  0.43051000  0.04552204  0.93376432     1.09100
C162        C  0.59518534  0.04183780  0.05752287     1.09200
C163        C  0.59221917  0.05134114  0.95099805     1.09100
C164        C  0.43427737  0.06097000  0.04010762     1.09100
C165        C  0.29953319  0.73932961  0.76021030     0.79800
N166        N  0.27014414  0.70707367  0.76575602    -0.78500
C167        C  0.23678764  0.70144312  0.73789133     0.82300
N168        N  0.23297499  0.72860461  0.70434226    -0.78400
C169        C  0.26188045  0.76093833  0.69839363     0.82400
N170        N  0.29502151  0.76604927  0.72641584    -0.80200
C171        C  0.38936091  0.71154981  0.83430630     0.79800
N172        N  0.40404942  0.75099295  0.84506111    -0.78500
C173        C  0.38627082  0.78723222  0.82904184     0.82300
N174        N  0.35261282  0.78379813  0.80104311    -0.78400
C175        C  0.33699505  0.74428563  0.78992030     0.82400
N176        N  0.35524545  0.70869619  0.80728125    -0.80200
C177        C  0.21341589  0.82775808  0.61252070     0.79800
N178        N  0.21756390  0.79929683  0.64506489    -0.78500
C179        C  0.25728850  0.79072199  0.66195937     0.82300
N180        N  0.29268804  0.81172597  0.64677882    -0.78400
C181        C  0.28884339  0.84024659  0.61448790     0.82400
N182        N  0.24920176  0.84806725  0.59770250    -0.80200
C183        C  0.15834110  0.61169302  0.71862601     0.79800
N184        N  0.18989532  0.64182068  0.71239848    -0.78500
C185        C  0.20347322  0.66748677  0.74501342     0.82300
N186        N  0.18470442  0.66313934  0.78401640    -0.78400
C187        C  0.15265471  0.63395250  0.79007172     0.82400
N188        N  0.14008963  0.60885138  0.75759199    -0.80200
C189        C  0.76465752  0.27911087  0.23348320     0.79800
N190        N  0.73784839  0.24530587  0.22644353    -0.78500
C191        C  0.73516047  0.21298288  0.25493309     0.82300
N192        N  0.75918479  0.21500169  0.29072615    -0.78400
C193        C  0.78627393  0.24821402  0.29873193     0.82400
N194        N  0.78928988  0.28052637  0.26965030    -0.80200
C195        C  0.83931842  0.19870774  0.39126044     0.79800
N196        N  0.81760138  0.20530547  0.35476189    -0.78500
C197        C  0.81326779  0.24505944  0.33794679     0.82300
N198        N  0.83250690  0.27906272  0.35809052    -0.78400
C199        C  0.85493069  0.27213454  0.39518041     0.82400
N200        N  0.85768009  0.23212761  0.41113108    -0.80200
C201        C  0.80322696  0.35165132  0.14799632     0.79800
N202        N  0.80357016  0.32328850  0.18076321    -0.78500
C203        C  0.76601594  0.31355766  0.20137544     0.82300
N204        N  0.72839775  0.33270968  0.18922037    -0.78400
C205        C  0.72779785  0.36188490  0.15722559     0.82400
N206        N  0.76558007  0.37083959  0.13688413    -0.80200
C207        C  0.66748713  0.11845907  0.27950483     0.79800
N208        N  0.69298670  0.15351066  0.28314601    -0.78500
C209        C  0.70622270  0.17579336  0.24847093     0.82300
N210        N  0.69365796  0.16262894  0.20905418    -0.78400
C211        C  0.66850997  0.12697492  0.20493634     0.82400
N212        N  0.65619803  0.10520333  0.24017638    -0.80200
O213        O  0.94580863  0.54386845  0.94336956    -0.80500
O214        O  0.09769127  0.48290535  0.95349700    -0.80600
O215        O  0.03668624  0.60693180  0.96359581    -0.80600
O216        O  0.95682494  0.45970082  0.95055798    -0.80500
O217        O  0.03955469  0.54448444  0.93200925    -0.80600
O218        O  0.89349430  0.48189582  0.97331272    -0.80600
O219        O  0.04430229  0.43670094  0.97170930    -0.80500
O220        O  0.94651554  0.60418870  0.97610644    -0.80600
C221        C  0.93285032  0.58176501  0.94565531     1.09100
C222        C  0.08091949  0.44564857  0.95246828     1.09000
C223        C  0.04690544  0.58418919  0.93170078     1.09200
C224        C  0.91505896  0.46056120  0.94655337     1.09000
O225        O  0.93539441  0.46867610  0.04725353    -0.80500
O226        O  0.09474759  0.56094897  0.00544874    -0.80600
O227        O  0.95999112  0.58393676  0.06291466    -0.80600
O228        O  0.02352299  0.45680023  0.06095823    -0.80500
O229        O  0.08096481  0.48501288  0.03458611    -0.80600
O230        O  0.90831805  0.55032124  0.02855533    -0.80600
O231        O  0.96441841  0.40966704  0.02133223    -0.80500
O232        O  0.04930941  0.58987123  0.05161134    -0.80600
Co233      Co  0.94392380  0.50827995  0.99547311     1.51500
Co234      Co  0.05594068  0.51339753  0.98363066     1.51700
Co235      Co  0.99827187  0.59261614  0.01365705     1.51600
Co236      Co  0.99181663  0.46321741  0.00687269     1.51500
O237        O  0.00256130  0.52779719  0.00974318    -1.42500
C238        C  0.93863076  0.42751272  0.04776104     1.09100
C239        C  0.08785824  0.58248237  0.03940149     1.09200
C240        C  0.92089986  0.57176703  0.06037086     1.09100
C241        C  0.06354309  0.46302232  0.06304575     1.09100
C242        C  0.20955765  0.14863688  0.35002503     0.79800
N243        N  0.20991975  0.17938111  0.31927435    -0.78500
C244        C  0.24820657  0.19728978  0.30649582     0.82300
N245        N  0.28586625  0.18482116  0.32576875    -0.78400
C246        C  0.28497794  0.15545807  0.35789646     0.82400
N247        N  0.24697075  0.13733616  0.36895285    -0.80200
C248        C  0.24893599  0.22940892  0.27127383     0.79800
N249        N  0.27435941  0.22254817  0.23628056    -0.78500
C250        C  0.27485213  0.25123332  0.20365128     0.82300
N251        N  0.24996139  0.28689150  0.20653173    -0.78400
C252        C  0.22447839  0.29461449  0.24091340     0.82400
N253        N  0.22385203  0.26553922  0.27331576    -0.80200
C254        C  0.16195123  0.39283610  0.27339291     0.79800
N255        N  0.14801508  0.40592935  0.23514080    -0.78500
C256        C  0.15735242  0.38384922  0.19972815     0.82300
N257        N  0.18208859  0.34809573  0.20213634    -0.78400
C258        C  0.19653633  0.33367948  0.24040755     0.82400
N259        N  0.18520567  0.35555294  0.27652418    -0.80200
C260        C  0.34568343  0.27817065  0.11167006     0.79800
N261        N  0.31920096  0.28131740  0.14605762    -0.78500
C262        C  0.30323808  0.24573454  0.16563023     0.82300
N263        N  0.31427042  0.20625431  0.15034943    -0.78400
C264        C  0.33981194  0.20288411  0.11497414     0.82400
N265        N  0.35581885  0.23884650  0.09674759    -0.80200
C266        C  0.77322318  0.30363539  0.75202800     0.79800
N267        N  0.74572260  0.29591458  0.78510526    -0.78500
C268        C  0.72360328  0.25850416  0.78821764     0.82300
N269        N  0.72925204  0.22841083  0.75764942    -0.78400
C270        C  0.75677758  0.23524348  0.72443768     0.82400
N271        N  0.77891791  0.27294174  0.72175599    -0.80200
C272        C  0.83768938  0.40067042  0.72002334     0.79800
N273        N  0.81362991  0.36395106  0.71674369    -0.78500
C274        C  0.79982351  0.34330809  0.75277325     0.82300
N275        N  0.81248791  0.35814156  0.79125136    -0.78400
C276        C  0.83832553  0.39287070  0.79430646     0.82400
N277        N  0.85029200  0.41406993  0.75881886    -0.80200
C278        C  0.66036449  0.20278311  0.87311386     0.79800
N279        N  0.64169501  0.23647158  0.89315698    -0.78500
C280        C  0.64862492  0.27694092  0.87940133     0.82300
N281        N  0.67531656  0.28385035  0.84563166    -0.78400
C282        C  0.69434519  0.25045023  0.82505115     0.82400
N283        N  0.68633067  0.20980419  0.83871549    -0.80200
C284        C  0.72622905  0.15199325  0.64651600     0.79800
N285        N  0.72416669  0.18442238  0.67501767    -0.78500
C286        C  0.76084482  0.20189485  0.69123002     0.82300
N287        N  0.80027263  0.18659816  0.67852794    -0.78400
C288        C  0.80269537  0.15369410  0.65011875     0.82400
N289        N  0.76552207  0.13671248  0.63443520    -0.80200
C290        C  0.74158948  0.75306517  0.29962073     0.79800
N291        N  0.76458762  0.71565635  0.29851199    -0.78500
C292        C  0.75661465  0.68641154  0.26729996     0.82300
N293        N  0.72616884  0.69553954  0.23733296    -0.78400
C294        C  0.70335741  0.73273471  0.23824623     0.82400
N295        N  0.71125705  0.76110038  0.26953246    -0.80200
C296        C  0.71237055  0.83546459  0.37797210     0.79800
N297        N  0.75157810  0.85018933  0.39010960    -0.78500
C298        C  0.78851983  0.83325220  0.37386384     0.82300
N299        N  0.78608377  0.79994791  0.34594726    -0.78400
C300        C  0.74656183  0.78495878  0.33369696     0.82400
N301        N  0.71003887  0.80321995  0.34956303    -0.80200
C302        C  0.82170723  0.60508440  0.21139380     0.79800
N303        N  0.83556843  0.57979634  0.24311759    -0.78500
C304        C  0.82493728  0.58725431  0.28415224     0.82300
N305        N  0.79956285  0.62237318  0.29312653    -0.78400
C306        C  0.78436297  0.64784371  0.26079064     0.82400
N307        N  0.79597999  0.63881946  0.22023217    -0.80200
C308        C  0.62926489  0.79041831  0.16383118     0.79800
N309        N  0.61098898  0.75667772  0.14373613    -0.78500
C310        C  0.62168472  0.71597284  0.15394965     0.82300
N311        N  0.65139193  0.70892835  0.18476522    -0.78400
C312        C  0.67014779  0.74203354  0.20554550     0.82400
N313        N  0.65893065  0.78307702  0.19507904    -0.80200
C314        C  0.23246863  0.74918504  0.29715870     0.79800
N315        N  0.23155434  0.71728650  0.26759532    -0.78500
C316        C  0.26236329  0.71537483  0.23638458     0.82300
N317        N  0.29395145  0.74586213  0.23496018    -0.78400
C318        C  0.29510903  0.77799406  0.26412569     0.82400
N319        N  0.26418872  0.77935701  0.29491476    -0.80200
C320        C  0.37618730  0.86073551  0.29594513     0.79800
N321        N  0.34541468  0.82950165  0.29823132    -0.78500
C322        C  0.32891077  0.81203238  0.26184881     0.82300
N323        N  0.34258382  0.82716275  0.22332710    -0.78400
C324        C  0.37228323  0.85930807  0.22129003     0.82400
N325        N  0.38844883  0.87545400  0.25759558    -0.80200
C326        C  0.15052557  0.72658946  0.38314565     0.79800
N327        N  0.18187416  0.72052030  0.35277288    -0.78500
C328        C  0.19742556  0.75421458  0.32943831     0.82300
N329        N  0.18135661  0.79402796  0.33662407    -0.78400
C330        C  0.14924903  0.80008866  0.36539373     0.82400
N331        N  0.13447007  0.76660445  0.38832908    -0.80200
C332        C  0.30102343  0.62523282  0.16874787     0.79800
N333        N  0.26528607  0.61671963  0.14548448    -0.78500
C334        C  0.22790447  0.63871585  0.15138059     0.82300
N335        N  0.22654079  0.67019231  0.18149865    -0.78400
C336        C  0.26262172  0.67992315  0.20464566     0.82400
N337        N  0.29994748  0.65775326  0.19741623    -0.80200
O338        O  0.96975441  0.89109505  0.46934861    -0.80500
O339        O  0.04037040  0.05762512  0.43886470    -0.80600
O340        O  0.90658210  0.03003122  0.49017980    -0.80600
O341        O  0.08903947  0.95690646  0.47692947    -0.80500
O342        O  0.95401054  0.04679338  0.44301213    -0.80600
O343        O  0.02967023  0.94893331  0.43969801    -0.80600
O344        O  0.09470744  0.04479967  0.48170073    -0.80500
O345        O  0.93309672  0.95083789  0.46204686    -0.80600
C346        C  0.93724948  0.91026053  0.45438161     1.09100
C347        C  0.08003657  0.06017776  0.44716142     1.09000
C348        C  0.91554926  0.04816076  0.45564577     1.09200
C349        C  0.07015554  0.94376045  0.44362058     1.09000
O350        O  0.04064075  0.90608294  0.51858833    -0.80500
O351        O  0.95372574  0.08114029  0.53061800    -0.80600
O352        O  0.89517443  0.96111598  0.53701176    -0.80600
O353        O  0.05934219  0.03997089  0.56716855    -0.80500
O354        O  0.04033809  0.09198666  0.52415555    -0.80600
O355        O  0.95734496  0.92732570  0.54563843    -0.80600
O356        O  0.05862926  0.95412819  0.56427760    -0.80500
O357        O  0.94798646  0.02296715  0.56913508    -0.80600
Co358      Co  0.99387296  0.94223629  0.49123654     1.51500
Co359      Co  0.99757098  0.06509459  0.48458359     1.51700
Co360      Co  0.94568524  0.98698374  0.51720807     1.51600
Co361      Co  0.07101526  0.99918632  0.52201634     1.51500
O362        O  0.00736207  0.00375599  0.50444474    -1.42500
C363        C  0.06100297  0.91601845  0.55196016     1.09100
C364        C  0.94090401  0.06266281  0.56463939     1.09200
C365        C  0.91599059  0.93001258  0.55214171     1.09100
C366        C  0.05638546  0.07901329  0.55888647     1.09100
C367        C  0.15700645  0.87287791  0.39380065    -0.06200
C368        C  0.13088792  0.84283352  0.37350446    -0.00300
C369        C  0.08628114  0.85124903  0.36866943    -0.08800
C370        C  0.06837324  0.88698523  0.38904382    -0.06200
C371        C  0.09367565  0.91521249  0.41329666    -0.00300
C372        C  0.13950029  0.90962231  0.41306690    -0.08700
C373        C  0.17086031  0.93859319  0.43616608     0.61600
H374        H  0.19118047  0.86598013  0.39714581     0.12300
H375        H  0.03359234  0.89103748  0.38814681     0.12300
C376        C  0.05600161  0.82150340  0.34519677     0.61900
F377        F  0.17747739  0.92311339  0.47665324    -0.23300
F378        F  0.15612011  0.98002005  0.43848379    -0.20600
F379        F  0.21016422  0.93978986  0.41506515    -0.20300
F380        F  0.03441888  0.79602395  0.37410965    -0.20400
F381        F  0.07778880  0.79579769  0.31660249    -0.20700
F382        F  0.02596560  0.84500961  0.32262825    -0.23300
C383        C  0.85783075  0.82575972  0.41263566    -0.06200
C384        C  0.83066178  0.85120837  0.38776583    -0.00300
C385        C  0.84166200  0.89459497  0.38092034    -0.08800
C386        C  0.87807626  0.91167216  0.40144579    -0.06200
C387        C  0.90395363  0.88716230  0.42868392    -0.00300
C388        C  0.89424195  0.84283940  0.43362776    -0.08700
C389        C  0.92039607  0.81374819  0.46239365     0.61600
H390        H  0.84883250  0.79269294  0.41728883     0.12300
H391        H  0.88566667  0.94512580  0.39747943     0.12300
C392        C  0.81478104  0.92312102  0.35240668     0.61900
F393        F  0.90391343  0.77268616  0.46362860    -0.23300
F394        F  0.91994981  0.82943090  0.50332240    -0.20600
F395        F  0.96251901  0.81117454  0.44782356    -0.20300
F396        F  0.77530517  0.93125356  0.37127459    -0.20400
F397        F  0.80841129  0.90333921  0.31377310    -0.20700
F398        F  0.83477844  0.96192219  0.34485429    -0.23300
C399        C  0.85273735  0.09170152  0.64668936    -0.06200
C400        C  0.84490586  0.13455194  0.63654379    -0.00300
C401        C  0.87432618  0.15574360  0.60936395    -0.08800
C402        C  0.90694019  0.13168270  0.58859626    -0.06200
C403        C  0.91247152  0.08736369  0.59548128    -0.00300
C404        C  0.88701724  0.06813836  0.62823389    -0.08700
C405        C  0.89435498  0.02283291  0.64353452     0.61600
H406        H  0.83059146  0.07624360  0.66847512     0.12300
H407        H  0.92750126  0.14736356  0.56557066     0.12300
C408        C  0.87046019  0.20334814  0.60166740     0.61900
F409        F  0.88062215  0.99442324  0.61317794    -0.23300
F410        F  0.87160021  0.01428485  0.68044564    -0.20600
F411        F  0.93770334  0.01645769  0.65204653    -0.20300
F412        F  0.87493411  0.22478449  0.63968537    -0.20400
F413        F  0.83048370  0.21275217  0.58458854    -0.20700
F414        F  0.90204205  0.21811003  0.57415878    -0.23300
C415        C  0.14132042  0.15021364  0.39096263    -0.06200
C416        C  0.16948329  0.12709451  0.36471662    -0.00300
C417        C  0.16459024  0.08208877  0.36203247    -0.08800
C418        C  0.13408355  0.06157957  0.38831668    -0.06200
C419        C  0.10886841  0.08423618  0.41759996    -0.00300
C420        C  0.11085371  0.12954972  0.41740773    -0.08700
C421        C  0.08239910  0.15599933  0.44646121     0.61600
H422        H  0.14558218  0.18445492  0.39297060     0.12300
H423        H  0.12996917  0.02742418  0.38581726     0.12300
C424        C  0.19117389  0.05407209  0.33260293     0.61900
F425        F  0.03944621  0.14552174  0.44047897    -0.23300
F426        F  0.08682206  0.19925156  0.43876093    -0.20600
F427        F  0.09375082  0.14833859  0.48804821    -0.20300
F428        F  0.21757036  0.02783278  0.35646572    -0.20400
F429        F  0.21662597  0.07718482  0.30477360    -0.20700
F430        F  0.16374236  0.02891760  0.30877636    -0.23300
C431        C  0.83139155  0.41532803  0.86905827    -0.06200
C432        C  0.85827291  0.40438932  0.83501213    -0.00300
C433        C  0.90367705  0.40732077  0.83955757    -0.08800
C434        C  0.92033874  0.42676806  0.87592733    -0.06200
C435        C  0.89366029  0.43994018  0.90957601    -0.00300
C436        C  0.84828988  0.43207875  0.90700053    -0.08700
C437        C  0.81750169  0.44055602  0.94369974     0.61600
H438        H  0.79682610  0.41166943  0.86521031     0.12300
H439        H  0.95496753  0.43100415  0.87815289     0.12300
C440        C  0.93603785  0.38959565  0.80770633     0.61900
F441        F  0.77658976  0.42450763  0.93596768    -0.23300
F442        F  0.81356963  0.48399993  0.95029797    -0.20600
F443        F  0.83274845  0.42103190  0.98005373    -0.20300
F444        F  0.95531223  0.42295376  0.78609990    -0.20400
F445        F  0.91759959  0.36200722  0.77880625    -0.20700
F446        F  0.96769546  0.36689206  0.82891974    -0.23300
C447        C  0.82518389  0.57594494  0.13849295    -0.06200
C448        C  0.84324723  0.60159394  0.17006070    -0.00300
C449        C  0.88402951  0.62062935  0.16370209    -0.08800
C450        C  0.90661405  0.61172536  0.12630912    -0.06200
C451        C  0.89050945  0.58354616  0.09542612    -0.00300
C452        C  0.84794454  0.56662137  0.10072972    -0.08700
C453        C  0.82646684  0.53844604  0.06775188     0.61600
H454        H  0.79366763  0.56211132  0.14443010     0.12300
H455        H  0.93832289  0.62562342  0.12203514     0.12300
C456        C  0.90489723  0.64829761  0.19751801     0.61900
F457        F  0.84956769  0.50099714  0.06286628    -0.23300
F458        F  0.82431042  0.55985264  0.02946362    -0.20600
F459        F  0.78469181  0.52755312  0.07921839    -0.20300
F460        F  0.91562407  0.62331445  0.23205360    -0.20400
F461        F  0.87667470  0.68004122  0.21029467    -0.20700
F462        F  0.94218985  0.66784562  0.18290363    -0.23300
C463        C  0.06775206  0.41678719  0.12670304    -0.06200
C464        C  0.08999377  0.44203914  0.09690179    -0.00300
C465        C  0.13628088  0.44299180  0.09847403    -0.08800
C466        C  0.15757235  0.42036970  0.13094071    -0.06200
C467        C  0.13479413  0.39631816  0.16078607    -0.00300
C468        C  0.08927166  0.39324632  0.15794898    -0.08700
C469        C  0.06167093  0.36605381  0.18737136     0.61600
H470        H  0.03283146  0.41466045  0.12541994     0.12300
H471        H  0.19231551  0.42258211  0.13444408     0.12300
C472        C  0.16380991  0.46792338  0.06709582     0.61900
F473        F  0.03416436  0.34100375  0.16349662    -0.23300
F474        F  0.03715311  0.39238401  0.21311582    -0.20600
F475        F  0.08569237  0.33899742  0.21266451    -0.20300
F476        F  0.15312641  0.51058699  0.06908670    -0.20400
F477        F  0.15736885  0.45271197  0.02652631    -0.20700
F478        F  0.20754145  0.46453309  0.07564981    -0.23300
C479        C  0.11624757  0.60501801  0.11016819    -0.06200
C480        C  0.12441561  0.59893954  0.06648451    -0.00300
C481        C  0.16634294  0.60897996  0.05075272    -0.08800
C482        C  0.19836872  0.62323028  0.07944117    -0.06200
C483        C  0.19025704  0.62850684  0.12313106    -0.00300
C484        C  0.14826202  0.61946100  0.13869781    -0.08700
C485        C  0.13760395  0.62354867  0.18550309     0.61600
H486        H  0.08435926  0.59753309  0.12223360     0.12300
H487        H  0.23064732  0.62996434  0.06789484     0.12300
C488        C  0.17751133  0.60524710  0.00396525     0.61900
F489        F  0.09649125  0.60880256  0.19481369    -0.23300
F490        F  0.13973262  0.66593824  0.19739356    -0.20600
F491        F  0.16669982  0.60004123  0.20917661    -0.20300
F492        F  0.14765959  0.62760503  0.98010112    -0.20400
F493        F  0.17748563  0.56282502  0.99195531    -0.20700
F494        F  0.21799793  0.62174592  0.99492084    -0.23300
C495        C  0.86706945  0.39847896  0.14228942    -0.06200
C496        C  0.84356236  0.36434298  0.12572535    -0.00300
C497        C  0.85604309  0.34672643  0.08624268    -0.08800
C498        C  0.89001413  0.36613510  0.06309033    -0.06200
C499        C  0.91176983  0.40242004  0.07838006    -0.00300
C500        C  0.90170766  0.41718892  0.12001584    -0.08700
C501        C  0.92615915  0.45189090  0.14335382     0.61600
H502        H  0.85773670  0.41126836  0.17291030     0.12300
H503        H  0.89795341  0.35465037  0.03166864     0.12300
C504        C  0.83270323  0.30821683  0.06845702     0.61900
F505        F  0.93850359  0.43653062  0.18260570    -0.23300
F506        F  0.89937280  0.48675275  0.14922894    -0.20600
F507        F  0.96315284  0.46502772  0.12277962    -0.20300
F508        F  0.78983532  0.31822438  0.06116158    -0.20400
F509        F  0.83484130  0.27494189  0.09719870    -0.20700
F510        F  0.85089999  0.29456521  0.03068406    -0.23300
C511        C  0.86000826  0.10395799  0.46285611    -0.06200
C512        C  0.88471344  0.07804667  0.43556768    -0.00300
C513        C  0.88641172  0.08811383  0.39178973    -0.08800
C514        C  0.86857352  0.12688263  0.37799476    -0.06200
C515        C  0.84837416  0.15505653  0.40627301    -0.00300
C516        C  0.84170133  0.14252544  0.44886220    -0.08700
C517        C  0.81816487  0.17093946  0.48028772     0.61600
H518        H  0.85856041  0.09608766  0.49628167     0.12300
H519        H  0.87252125  0.13624652  0.34510866     0.12300
C520        C  0.90783960  0.06005577  0.35870948     0.61900
F521        F  0.80422118  0.14795464  0.51523909    -0.23300
F522        F  0.78221723  0.18922818  0.46164909    -0.20600
F523        F  0.84564221  0.20280190  0.49393844    -0.20300
F524        F  0.91704810  0.01962619  0.37367173    -0.20400
F525        F  0.94572141  0.07913638  0.34511867    -0.20700
F526        F  0.88047834  0.05550265  0.32443492    -0.23300
C527        C  0.09199486  0.64973692  0.83918108    -0.06200
C528        C  0.13084967  0.62777501  0.83135525    -0.00300
C529        C  0.14305627  0.59385233  0.85826605    -0.08800
C530        C  0.11486993  0.58151316  0.89105245    -0.06200
C531        C  0.07496690  0.60189030  0.89771780    -0.00300
C532        C  0.06388465  0.63764080  0.87251353    -0.08700
C533        C  0.02188774  0.66153439  0.87966884     0.61600
H534        H  0.08296956  0.67523761  0.81778404     0.12300
H535        H  0.12360380  0.55522335  0.91157982     0.12300
C536        C  0.18540371  0.57027556  0.85157248     0.61900
F537        F  0.01620130  0.69392700  0.85036519    -0.23300
F538        F  0.02184245  0.67960525  0.91960224    -0.20600
F539        F  0.98745888  0.63367407  0.87629764    -0.20300
F540        F  0.21925499  0.59904532  0.85258799    -0.20400
F541        F  0.18519928  0.54990269  0.81273298    -0.20700
F542        F  0.19243019  0.53984619  0.88262496    -0.23300
C543        C  0.14543465  0.86730976  0.62677869    -0.06200
C544        C  0.16996824  0.84285564  0.59836199    -0.00300
C545        C  0.15453063  0.83734145  0.55650705    -0.08800
C546        C  0.11637607  0.85878758  0.54390668    -0.06200
C547        C  0.09332929  0.88602626  0.57151883    -0.00300
C548        C  0.10710271  0.88840589  0.61455921    -0.08700
C549        C  0.08339001  0.91244695  0.64929204     0.61600
H550        H  0.15709451  0.87101817  0.65894354     0.12300
H551        H  0.10597257  0.85659412  0.51124979     0.12300
C552        C  0.17866589  0.80939259  0.52512646     0.61900
F553        F  0.07824302  0.88599926  0.68409617    -0.23300
F554        F  0.04282101  0.92600044  0.63751727    -0.20600
F555        F  0.10759186  0.94748422  0.66118808    -0.20300
F556        F  0.18451861  0.76918167  0.54228212    -0.20400
F557        F  0.21853495  0.82710164  0.51605293    -0.20700
F558        F  0.15629327  0.80495014  0.48745797    -0.23300
C559        C  0.59136027  0.86127575  0.16943308    -0.06200
C560        C  0.61972361  0.83405638  0.14718686    -0.00300
C561        C  0.63200323  0.84566392  0.10548752    -0.08800
C562        C  0.61001312  0.87898291  0.08511805    -0.06200
C563        C  0.57865239  0.90422914  0.10566774    -0.00300
C564        C  0.57234223  0.89771445  0.14987098    -0.08700
C565        C  0.54600638  0.92858609  0.17617546     0.61600
H566        H  0.58324085  0.85311807  0.20183468     0.12300
H567        H  0.61832600  0.88582640  0.05239909     0.12300
C568        C  0.66875868  0.82492402  0.08106819     0.61900
F569        F  0.54493478  0.91681319  0.21841226    -0.23300
F570        F  0.50420824  0.92999756  0.16144649    -0.20600
F571        F  0.56407124  0.96885812  0.17367193    -0.20300
F572        F  0.69052511  0.79434266  0.10425480    -0.20400
F573        F  0.69834755  0.85599928  0.06970145    -0.20700
F574        F  0.65289411  0.80652258  0.04451844    -0.23300
C575        C  0.41385294  0.86924171  0.91375643    -0.06200
C576        C  0.44020534  0.89913515  0.89237352    -0.00300
C577        C  0.44405787  0.89469923  0.84744534    -0.08800
C578        C  0.42431287  0.85899400  0.82692001    -0.06200
C579        C  0.39899392  0.82891857  0.84920064    -0.00300
C580        C  0.39221201  0.83567188  0.89314615    -0.08700
C581        C  0.36255119  0.80820666  0.92034042     0.61600
H582        H  0.40897214  0.87244946  0.94761810     0.12300
H583        H  0.42934730  0.85373518  0.79337513     0.12300
C584        C  0.46900995  0.92688327  0.82113115     0.61900
F585        F  0.38729185  0.78350745  0.94728738    -0.23300
F586        F  0.33606792  0.78175838  0.89695289    -0.20600
F587        F  0.33595206  0.83425634  0.94439769    -0.20300
F588        F  0.51107630  0.92951762  0.83523470    -0.20400
F589        F  0.44958607  0.96650092  0.82437995    -0.20700
F590        F  0.47013587  0.91578945  0.77869229    -0.23300
C591        C  0.60529555  0.10644514  0.10320063    -0.06200
C592        C  0.62045281  0.06560687  0.09119342    -0.00300
C593        C  0.65554405  0.04785458  0.11477415    -0.08800
C594        C  0.67217951  0.07078762  0.14975637    -0.06200
C595        C  0.65494412  0.11003413  0.16284757    -0.00300
C596        C  0.62090242  0.12827757  0.13920594    -0.08700
C597        C  0.59851262  0.16869442  0.15415431     0.61600
H598        H  0.57903290  0.12041649  0.08546315     0.12300
H599        H  0.69768518  0.05709696  0.16888999     0.12300
C600        C  0.67453113  0.00416575  0.10521548     0.61900
F601        F  0.56847793  0.18319809  0.12511092    -0.23300
F602        F  0.62841015  0.20079436  0.16028380    -0.20600
F603        F  0.57728764  0.16062097  0.19194921    -0.20300
F604        F  0.68789186  0.00210446  0.06347858    -0.20400
F605        F  0.64394466  0.97310526  0.11297680    -0.20700
F606        F  0.71004061  0.99513796  0.13026728    -0.23300
C607        C  0.42315645  0.88450528  0.11342427    -0.06200
C608        C  0.42508099  0.92949835  0.11537673    -0.00300
C609        C  0.40540582  0.95047994  0.15068686    -0.08800
C610        C  0.38517350  0.92563970  0.18206124    -0.06200
C611        C  0.38531338  0.88091514  0.18119723    -0.00300
C612        C  0.40446016  0.85977472  0.14629671    -0.08700
C613        C  0.40715878  0.81150682  0.14502332     0.61600
H614        H  0.43820498  0.86861320  0.08673639     0.12300
H615        H  0.37062337  0.94112490  0.20927286     0.12300
C616        C  0.40629943  0.99870675  0.15679662     0.61900
F617        F  0.42916683  0.79714615  0.10953147    -0.23300
F618        F  0.36598152  0.79445234  0.14430893    -0.20600
F619        F  0.42867095  0.79678105  0.18050712    -0.20300
F620        F  0.38885190  0.01876146  0.12180815    -0.20400
F621        F  0.44836710  0.01217352  0.16297057    -0.20700
F622        F  0.38256280  0.01159435  0.19180610    -0.23300
C623        C  0.36412493  0.10019156  0.05330697    -0.06200
C624        C  0.40862622  0.09560740  0.06174664    -0.00300
C625        C  0.42784692  0.12373378  0.09201463    -0.08800
C626        C  0.40242238  0.15566316  0.11099854    -0.06200
C627        C  0.35896430  0.16159122  0.10100028    -0.00300
C628        C  0.33907792  0.13330343  0.07197933    -0.08700
C629        C  0.29190945  0.13869743  0.06049237     0.61600
H630        H  0.34940584  0.07847870  0.03094637     0.12300
H631        H  0.41705281  0.17828474  0.13255687     0.12300
C632        C  0.47537307  0.12172095  0.10411652     0.61900
F633        F  0.27869595  0.10865877  0.03112076    -0.23300
F634        F  0.28516564  0.17880217  0.04342278    -0.20600
F635        F  0.26676267  0.13418342  0.09651891    -0.20300
F636        F  0.50036470  0.13468877  0.07007482    -0.20400
F637        F  0.48654121  0.08072515  0.11601901    -0.20700
F638        F  0.48488352  0.14825159  0.13786792    -0.23300
C639        C  0.60407824  0.09612534  0.88817714    -0.06200
C640        C  0.61994512  0.08288912  0.92786521    -0.00300
C641        C  0.65444218  0.10632512  0.94616651    -0.08800
C642        C  0.66799343  0.14466505  0.92650864    -0.06200
C643        C  0.65013886  0.15891331  0.88814116    -0.00300
C644        C  0.61846408  0.13366615  0.86802942    -0.08700
C645        C  0.59775976  0.14797145  0.82689193     0.61600
H646        H  0.57795693  0.07800015  0.87420160     0.12300
H647        H  0.69204429  0.16439379  0.94189307     0.12300
C648        C  0.67556060  0.09434910  0.98758467     0.61900
F649        F  0.57717508  0.18666502  0.83292483    -0.23300
F650        F  0.56746376  0.11894447  0.81253413    -0.20600
F651        F  0.62913944  0.15247010  0.79592496    -0.20300
F652        F  0.66993964  0.05181167  0.99705387    -0.20400
F653        F  0.65835805  0.11905719  0.01971116    -0.20700
F654        F  0.71961145  0.10172753  0.98525389    -0.23300
C655        C  0.13430534  0.14133992  0.62702993    -0.06200
C656        C  0.11064054  0.17899514  0.63261448    -0.00300
C657        C  0.06661814  0.18062424  0.62042650    -0.08800
C658        C  0.04954626  0.14633112  0.59768862    -0.06200
C659        C  0.07445014  0.11019778  0.58858057    -0.00300
C660        C  0.11710100  0.10663182  0.60474501    -0.08700
C661        C  0.14572132  0.06817371  0.59576157     0.61600
H662        H  0.16779195  0.14078774  0.63690111     0.12300
H663        H  0.01659558  0.14814422  0.58615386     0.12300
C664        C  0.03656194  0.21774479  0.62987573     0.61900
F665        F  0.18710631  0.07347901  0.61147402    -0.23300
F666        F  0.14911852  0.06184019  0.55253889    -0.20600
F667        F  0.12833220  0.03222325  0.61459865    -0.20300
F668        F  0.02586900  0.23803197  0.59241141    -0.20400
F669        F  0.05443021  0.24718730  0.65728123    -0.20700
F670        F  0.99911751  0.20244637  0.64857619    -0.23300
C671        C  0.42594058  0.10961753  0.88625705    -0.06200
C672        C  0.40659106  0.07125910  0.90046188    -0.00300
C673        C  0.36792864  0.05771147  0.87988293    -0.08800
C674        C  0.35213904  0.08140698  0.84480270    -0.06200
C675        C  0.37323034  0.11799753  0.82954011    -0.00300
C676        C  0.41018790  0.13289664  0.85115142    -0.08700
C677        C  0.43336487  0.17296885  0.83640407     0.61600
H678        H  0.45488681  0.12070935  0.90189320     0.12300
H679        H  0.32391181  0.07052104  0.82777156     0.12300
C680        C  0.34358351  0.01806064  0.89380948     0.61900
F681        F  0.46728397  0.18368819  0.86281838    -0.23300
F682        F  0.40464563  0.20681377  0.83575579    -0.20600
F683        F  0.44983195  0.16683155  0.79607636    -0.20300
F684        F  0.33396571  0.02069707  0.93656653    -0.20400
F685        F  0.36840237  0.98217307  0.88604189    -0.20700
F686        F  0.30499723  0.01336751  0.87224684    -0.23300
C687        C  0.13859071  0.38592337  0.86436044    -0.06200
C688        C  0.16628586  0.35976464  0.88792812    -0.00300
C689        C  0.16108266  0.35732902  0.93262686    -0.08800
C690        C  0.12938362  0.38290191  0.95237344    -0.06200
C691        C  0.10478912  0.41216103  0.92910292    -0.00300
C692        C  0.10855669  0.41312253  0.88434541    -0.08700
C693        C  0.08244609  0.44431124  0.85801321     0.61600
H694        H  0.14356432  0.38795462  0.83042832     0.12300
H695        H  0.12603722  0.38275500  0.98654425     0.12300
C696        C  0.19019088  0.32937660  0.95962841     0.61900
F697        F  0.09533477  0.48556686  0.86671494    -0.23300
F698        F  0.03904117  0.44002773  0.86754232    -0.20600
F699        F  0.08783618  0.43733708  0.81500915    -0.20300
F700        F  0.23149553  0.34610851  0.96058863    -0.20400
F701        F  0.19170582  0.28860219  0.94298562    -0.20700
F702        F  0.17534632  0.32653960  0.00098542    -0.23300
C703        C  0.88633882  0.56908906  0.88221377    -0.06200
C704        C  0.89877218  0.59715891  0.91506578    -0.00300
C705        C  0.87607931  0.63668282  0.91906726    -0.08800
C706        C  0.84060365  0.64490083  0.89208901    -0.06200
C707        C  0.82723476  0.61564709  0.86127720    -0.00300
C708        C  0.85113265  0.57775134  0.85524122    -0.08700
C709        C  0.83958637  0.54698240  0.81993264     0.61600
H710        H  0.90382790  0.53943753  0.87820384     0.12300
H711        H  0.82189894  0.67390430  0.89570990     0.12300
C712        C  0.88817405  0.67011114  0.95175929     0.61900
F713        F  0.86862540  0.51346398  0.81713521    -0.23300
F714        F  0.83987138  0.56845459  0.78160943    -0.20600
F715        F  0.79888088  0.53018246  0.82693316    -0.20300
F716        F  0.93098187  0.68162348  0.94645730    -0.20400
F717        F  0.88174485  0.65414684  0.99215702    -0.20700
F718        F  0.86349111  0.70678062  0.94789614    -0.23300
C719        C  0.88571210  0.83566371  0.62124361    -0.06200
C720        C  0.84658600  0.82436442  0.60235429    -0.00300
C721        C  0.82787957  0.85020424  0.57096041    -0.08800
C722        C  0.85068184  0.88633670  0.55761096    -0.06200
C723        C  0.89183654  0.89604187  0.57395428    -0.00300
C724        C  0.90909753  0.87124582  0.60735416    -0.08700
C725        C  0.95223461  0.88114327  0.62750050     0.61600
H726        H  0.89914038  0.81471455  0.64517473     0.12300
H727        H  0.83765537  0.90569698  0.53223772     0.12300
C728        C  0.78496852  0.83855608  0.55087171     0.61900
F729        F  0.98514550  0.87034746  0.59980609    -0.23300
F730        F  0.95825011  0.85837931  0.66464420    -0.20600
F731        F  0.95442867  0.92409917  0.63720214    -0.20300
F732        F  0.75332427  0.83652324  0.58187637    -0.20400
F733        F  0.78825234  0.79927277  0.53116232    -0.20700
F734        F  0.77227024  0.86824880  0.52087634    -0.23300
C735        C  0.64394449  0.90067618  0.83159219    -0.06200
C736        C  0.62431276  0.86188974  0.82135762    -0.00300
C737        C  0.59054701  0.84595916  0.84713219    -0.08800
C738        C  0.57428382  0.87204500  0.88000944    -0.06200
C739        C  0.59127131  0.91299149  0.88747773    -0.00300
C740        C  0.62885674  0.92609909  0.86506408    -0.08700
C741        C  0.65413056  0.96572720  0.87714305     0.61600
H742        H  0.67057270  0.91161255  0.81201890     0.12300
H743        H  0.54674487  0.86161923  0.89858910     0.12300
C744        C  0.57117313  0.80241607  0.83887124     0.61900
F745        F  0.69260437  0.96887447  0.85479060    -0.23300
F746        F  0.66417584  0.96405940  0.91975984    -0.20600
F747        F  0.63020974  0.00189782  0.86873854    -0.20300
F748        F  0.55216098  0.80182863  0.79930356    -0.20400
F749        F  0.54012935  0.79189467  0.86880282    -0.20700
F750        F  0.60338394  0.77182255  0.84032144    -0.23300
C751        C  0.41273188  0.31208479  0.08428103    -0.06200
C752        C  0.36849232  0.31631021  0.09366033    -0.00300
C753        C  0.34785980  0.35566206  0.08475103    -0.08800
C754        C  0.37273187  0.38981661  0.06845751    -0.06200
C755        C  0.41758865  0.38638250  0.06062108    -0.00300
C756        C  0.43783335  0.34602395  0.06799786    -0.08700
C757        C  0.48561098  0.33790737  0.05931338     0.61600
H758        H  0.42795798  0.28170087  0.09092618     0.12300
H759        H  0.35703115  0.42010247  0.06260690     0.12300
C760        C  0.29963386  0.36156844  0.09158631     0.61900
F761        F  0.49683870  0.29554845  0.06536129    -0.23300
F762        F  0.51055247  0.36200567  0.08653155    -0.20600
F763        F  0.49542648  0.34817368  0.01774462    -0.20300
F764        F  0.29046894  0.36194187  0.13447400    -0.20400
F765        F  0.27726811  0.32864638  0.07243849    -0.20700
F766        F  0.28495860  0.39956426  0.07444137    -0.23300
C767        C  0.63847347  0.32597611  0.94074160    -0.06200
C768        C  0.62550204  0.31287869  0.90013859    -0.00300
C769        C  0.58936479  0.33267945  0.88099877    -0.08800
C770        C  0.56895291  0.36668550  0.90212857    -0.06200
C771        C  0.58313922  0.38138722  0.94176907    -0.00300
C772        C  0.61780994  0.36009444  0.96205388    -0.08700
C773        C  0.63188431  0.37238928  0.00637015     0.61600
H774        H  0.66532006  0.30950977  0.95544170     0.12300
H775        H  0.54211750  0.38292059  0.88714723     0.12300
C776        C  0.57188376  0.31742617  0.83876401     0.61900
F777        F  0.66171155  0.34385716  0.02263857    -0.23300
F778        F  0.59639000  0.37280918  0.03314172    -0.20600
F779        F  0.65063754  0.41237827  0.00577344    -0.20300
F780        F  0.56084032  0.27480068  0.84170788    -0.20400
F781        F  0.60290558  0.32254050  0.80757339    -0.20700
F782        F  0.53538218  0.33990163  0.82666435    -0.23300
C783        C  0.60948483  0.39670534  0.13623108    -0.06200
C784        C  0.61605139  0.43547240  0.11466035    -0.00300
C785        C  0.65898562  0.45131838  0.11108164    -0.08800
C786        C  0.69349499  0.42565842  0.12475399    -0.06200
C787        C  0.68748453  0.38608322  0.14503232    -0.00300
C788        C  0.64422321  0.37183706  0.15200002    -0.08700
C789        C  0.63412353  0.33024475  0.17468175     0.61600
H790        H  0.57666387  0.38521410  0.13942082     0.12300
H791        H  0.72605121  0.43760878  0.12022010     0.12300
C792        C  0.67091861  0.49508759  0.09376265     0.61900
F793        F  0.59030795  0.32125733  0.17474673    -0.23300
F794        F  0.64721449  0.33285928  0.21643737    -0.20600
F795        F  0.65512776  0.29678903  0.15479826    -0.20300
F796        F  0.63670997  0.52322476  0.09351262    -0.20400
F797        F  0.68694753  0.49079792  0.05303843    -0.20700
F798        F  0.70251983  0.51326642  0.11888642    -0.23300
C799        C  0.60162680  0.59102999  0.88055147    -0.06200
C800        C  0.60274861  0.54635016  0.88290126    -0.00300
C801        C  0.63665492  0.52370669  0.86257784    -0.08800
C802        C  0.67087270  0.54715345  0.84449903    -0.06200
C803        C  0.67125754  0.59192547  0.84503200    -0.00300
C804        C  0.63508512  0.61443157  0.86137868    -0.08700
C805        C  0.63254441  0.66286221  0.86060636     0.61600
H806        H  0.57485614  0.60757810  0.89547472     0.12300
H807        H  0.69839835  0.53069469  0.83088357     0.12300
C808        C  0.63809685  0.47528273  0.86193751     0.61900
F809        F  0.59607505  0.67792946  0.88133588    -0.23300
F810        F  0.63080844  0.67702349  0.81915303    -0.20600
F811        F  0.66837582  0.68006369  0.88028652    -0.20300
F812        F  0.60137589  0.45957037  0.84259137    -0.20400
F813        F  0.64044938  0.45983618  0.90285572    -0.20700
F814        F  0.67358175  0.46006823  0.83975329    -0.23300
C815        C  0.58131394  0.64041274  0.06805617    -0.06200
C816        C  0.56839010  0.60476014  0.09202307    -0.00300
C817        C  0.57083154  0.60700711  0.13706396    -0.08800
C818        C  0.58775053  0.64431418  0.15575359    -0.06200
C819        C  0.60174558  0.67924776  0.13145613    -0.00300
C820        C  0.59825498  0.67736421  0.08672524    -0.08700
C821        C  0.61435698  0.71305044  0.05829510     0.61600
H822        H  0.57855389  0.63901817  0.03392620     0.12300
H823        H  0.59042630  0.64654832  0.18986444     0.12300
C824        C  0.55639064  0.57063915  0.16573922     0.61900
F825        F  0.61324883  0.70206975  0.01582540    -0.23300
F826        F  0.65673623  0.72239049  0.06833480    -0.20600
F827        F  0.58868474  0.74877408  0.06359734    -0.20300
F828        F  0.57981474  0.53418798  0.15679618    -0.20400
F829        F  0.51286138  0.56281206  0.15998302    -0.20700
F830        F  0.56248060  0.57997507  0.20816080    -0.23300
C831        C  0.42581535  0.67914255  0.89668691    -0.06200
C832        C  0.40815011  0.67290187  0.85612295    -0.00300
C833        C  0.40940605  0.63094699  0.83866930    -0.08800
C834        C  0.42788946  0.59734362  0.86272617    -0.06200
C835        C  0.44319902  0.60347621  0.90418009    -0.00300
C836        C  0.44259478  0.64546824  0.92123495    -0.08700
C837        C  0.45810645  0.65512903  0.96584593     0.61600
H838        H  0.42460595  0.71080528  0.91026646     0.12300
H839        H  0.42832895  0.56523590  0.85011120     0.12300
C840        C  0.39100805  0.62098990  0.79526189     0.61900
F841        F  0.49762748  0.63581953  0.97309216    -0.23300
F842        F  0.42800858  0.64028657  0.99472514    -0.20600
F843        F  0.46312519  0.69849951  0.97258522    -0.20300
F844        F  0.40849811  0.64827289  0.76532112    -0.20400
F845        F  0.34655002  0.62549173  0.79613757    -0.20700
F846        F  0.40013792  0.57959699  0.78277509    -0.23300
C847        C  0.38202583  0.53660757  0.14307474    -0.06200
C848        C  0.41405029  0.55985796  0.12120721    -0.00300
C849        C  0.41202989  0.60549063  0.12293842    -0.08800
C850        C  0.37603484  0.62542070  0.14177278    -0.06200
C851        C  0.34186939  0.60203874  0.15888224    -0.00300
C852        C  0.34589623  0.55706763  0.16200016    -0.08700
C853        C  0.31196998  0.53101874  0.18519167     0.61600
H854        H  0.38362399  0.50208703  0.14247390     0.12300
H855        H  0.37351679  0.65995330  0.14101249     0.12300
C856        C  0.44612741  0.63569367  0.10581240     0.61900
F857        F  0.32528109  0.48927888  0.19117770    -0.23300
F858        F  0.27397774  0.53056301  0.16231360    -0.20600
F859        F  0.30415173  0.54878130  0.22461965    -0.20300
F860        F  0.48020737  0.61530379  0.08684799    -0.20400
F861        F  0.46229794  0.65983186  0.13880992    -0.20700
F862        F  0.42769221  0.66287886  0.07646989    -0.23300
C863        C  0.39450768  0.39119422  0.88656104    -0.06200
C864        C  0.38524521  0.43193944  0.90315597    -0.00300
C865        C  0.34359264  0.44962593  0.89749550    -0.08800
C866        C  0.31137593  0.42386572  0.88005307    -0.00600
C867        C  0.31938781  0.38162868  0.86729339    -0.00300
C868        C  0.36227331  0.36564523  0.86806815    -0.08700
C869        C  0.37401911  0.32182204  0.85085199     0.61600
H870        H  0.42705510  0.37884243  0.88952191     0.12300
H871        H  0.27890435  0.43646250  0.87722994     0.12300
C872        C  0.33287496  0.49552077  0.90907686     0.61900
F873        F  0.41743555  0.31256890  0.85623229    -0.23300
F874        F  0.36550690  0.32020445  0.80789301    -0.20600
F875        F  0.35030579  0.29073862  0.87158300    -0.20300
F876        F  0.33122478  0.49999718  0.95261236    -0.20400
F877        F  0.29325615  0.50806451  0.89304335    -0.20700
F878        F  0.36389503  0.52257756  0.89246564    -0.23300
C879        C  0.11634654  0.48080791  0.34367830    -0.06200
C880        C  0.07932714  0.46030905  0.35979203    -0.00300
C881        C  0.07391731  0.41586229  0.35028748    -0.08800
C882        C  0.10526543  0.39429943  0.32627831    -0.06200
C883        C  0.14167360  0.41458905  0.31009969    -0.00300
C884        C  0.14750408  0.45876372  0.31882469    -0.08700
C885        C  0.18649343  0.48368482  0.30343416     0.61600
H886        H  0.12196044  0.51390989  0.35195959     0.12300
H887        H  0.09975269  0.36117543  0.31775164     0.12300
C888        C  0.03557734  0.38838196  0.36262939     0.61900
F889        F  0.17323943  0.51477247  0.27521012    -0.23300
F890        F  0.21697516  0.45814100  0.28371921    -0.20600
F891        F  0.20619924  0.50316940  0.33760006    -0.20300
F892        F  0.01491857  0.37467355  0.32629224    -0.20400
F893        F  0.00581631  0.40877288  0.38731086    -0.20700
F894        F  0.04992678  0.35309478  0.38470590    -0.23300
C895        C  0.86245581  0.53362454  0.38877022    -0.06200
C896        C  0.89845000  0.50968721  0.37457323    -0.00300
C897        C  0.90411192  0.50478885  0.33044255    -0.08800
C898        C  0.87819031  0.52933551  0.30275719    -0.06200
C899        C  0.84603336  0.55848721  0.31712466    -0.00300
C900        C  0.83622435  0.55820417  0.36114136    -0.08700
C901        C  0.79883592  0.58369324  0.37941947     0.61600
H902        H  0.85652991  0.53483331  0.42255914     0.12300
H903        H  0.88469324  0.52687827  0.26919086     0.12300
C904        C  0.93802487  0.47481828  0.31240244     0.61900
F905        F  0.79175771  0.57431911  0.42175513    -0.23300
F906        F  0.76130444  0.57423477  0.35770115    -0.20600
F907        F  0.80747290  0.62684947  0.37626627    -0.20300
F908        F  0.93247322  0.43452211  0.32948341    -0.20400
F909        F  0.97888212  0.48960059  0.32186400    -0.20700
F910        F  0.93501652  0.47129128  0.26880920    -0.23300
C911        C  0.12612909  0.56060581  0.61163097    -0.06200
C912        C  0.09536060  0.52988022  0.62472784    -0.00300
C913        C  0.09101446  0.52190134  0.66867318    -0.08800
C914        C  0.11453013  0.54755831  0.69746990    -0.06200
C915        C  0.14159097  0.58182504  0.68446794    -0.00300
C916        C  0.14887507  0.58700054  0.64025500    -0.08700
C917        C  0.17904867  0.62091282  0.62254471     0.61600
H918        H  0.13062790  0.56552490  0.57796097     0.12300
H919        H  0.11021336  0.54185175  0.73100684     0.12300
C920        C  0.06032257  0.48804571  0.68550732     0.61900
F921        F  0.18142042  0.61970510  0.57874205    -0.23300
F922        F  0.22036033  0.61453025  0.63790163    -0.20600
F923        F  0.16441851  0.66102481  0.63393588    -0.20300
F924        F  0.07035486  0.44892318  0.66780321    -0.20400
F925        F  0.01822928  0.49878843  0.67551149    -0.20700
F926        F  0.06290005  0.48384973  0.72909585    -0.23300
C927        C  0.89594879  0.39934083  0.66745316    -0.06200
C928        C  0.85990291  0.42082103  0.68309569    -0.00300
C929        C  0.85317246  0.46394997  0.67073427    -0.08800
C930        C  0.88355026  0.48424540  0.64337538    -0.06200
C931        C  0.92062723  0.46282427  0.62852306    -0.00300
C932        C  0.92686464  0.41936508  0.64151432    -0.08700
C933        C  0.96550821  0.39163577  0.63001546     0.61600
H934        H  0.90144466  0.36675023  0.67780732     0.12300
H935        H  0.87774546  0.51642418  0.63222461     0.12300
C936        C  0.81268560  0.48735006  0.68470093     0.61900
F937        F  0.98211184  0.37319634  0.66637154    -0.23300
F938        F  0.99867566  0.41366143  0.61111660    -0.20600
F939        F  0.95225134  0.35953448  0.60299121    -0.20300
F940        F  0.77675425  0.46480372  0.67150326    -0.20400
F941        F  0.81051961  0.52798216  0.66758673    -0.20700
F942        F  0.81166486  0.49093780  0.72832244    -0.23300
C943        C  0.12281559  0.39285258  0.56836929    -0.06200
C944        C  0.10396103  0.37909918  0.52967824    -0.00300
C945        C  0.11252313  0.33684396  0.51646536    -0.08800
C946        C  0.13363350  0.30872147  0.54478585    -0.06200
C947        C  0.14688339  0.32125764  0.58582213    -0.00300
C948        C  0.14363973  0.36481378  0.59677056    -0.08700
C949        C  0.15952271  0.38137901  0.63915080     0.61600
H950        H  0.11882663  0.42572780  0.57798733     0.12300
H951        H  0.13774918  0.27560860  0.53583080     0.12300
C952        C  0.09950036  0.32125808  0.47307707     0.61900
F953        F  0.15370362  0.42499295  0.64317091    -0.23300
F954        F  0.20322278  0.37315769  0.64315085    -0.20600
F955        F  0.13719122  0.36161345  0.67173889    -0.20300
F956        F  0.11726111  0.28176069  0.46396061    -0.20400
F957        F  0.11386948  0.34979204  0.44270022    -0.20700
F958        F  0.05514101  0.31762682  0.47112762    -0.23300
C959        C  0.85745638  0.33153011  0.44796294    -0.06200
C960        C  0.87940188  0.30579047  0.41845737    -0.00300
C961        C  0.92528684  0.30546651  0.41894642    -0.08800
C962        C  0.94757727  0.33189225  0.44785148    -0.06200
C963        C  0.92581006  0.35796310  0.47720566    -0.00300
C964        C  0.87984404  0.35741207  0.47740555    -0.08700
C965        C  0.85295514  0.38377214  0.50797624     0.61600
H966        H  0.82253160  0.33048836  0.44889835     0.12300
H967        H  0.98208940  0.33433176  0.44596015     0.12300
C968        C  0.95072442  0.27791185  0.38806352     0.61900
F969        F  0.82328235  0.35766163  0.52814954    -0.23300
F970        F  0.83094189  0.41492709  0.48571887    -0.20600
F971        F  0.87761095  0.40316724  0.53889340    -0.20300
F972        F  0.93759393  0.28654907  0.34709698    -0.20400
F973        F  0.94390393  0.23522792  0.39679054    -0.20700
F974        F  0.99468536  0.28536135  0.39049755    -0.23300
C975        C  0.92043680  0.62432030  0.57146233    -0.06200
C976        C  0.91594724  0.62315494  0.52699587    -0.00300
C977        C  0.88428618  0.64892968  0.50763191    -0.08800
C978        C  0.85722769  0.67406302  0.53367457    -0.06200
C979        C  0.86115515  0.67416730  0.57816030    -0.00300
C980        C  0.89374665  0.64943477  0.59742210    -0.08700
C981        C  0.90125131  0.65058073  0.64497610     0.61600
H982        H  0.94512578  0.60467380  0.58596737     0.12300
H983        H  0.83340347  0.69490127  0.51940210     0.12300
C984        C  0.87920803  0.64983234  0.46005950     0.61900
F985        F  0.86503151  0.63546599  0.66589545    -0.23300
F986        F  0.90942937  0.69199357  0.65779414    -0.20600
F987        F  0.93612289  0.62560735  0.65682964    -0.20300
F988        F  0.87322202  0.60894046  0.44527189    -0.20400
F989        F  0.91604191  0.66675362  0.44175520    -0.20700
F990        F  0.84410690  0.67425645  0.44777107    -0.23300
C991        C  0.12200879  0.61748339  0.43474411    -0.06200
C992        C  0.08816744  0.62884015  0.46279311    -0.00300
C993        C  0.07906587  0.67282847  0.46809403    -0.08800
C994        C  0.10149297  0.70293581  0.44269586    -0.06200
C995        C  0.13257122  0.69130902  0.41148492    -0.00300
C996        C  0.14414021  0.64738895  0.40890506    -0.08700
C997        C  0.17875350  0.63115735  0.37864316     0.61600
H998        H  0.12969152  0.58392889  0.43160476     0.12300
H999        H  0.09337601  0.73627185  0.44640256     0.12300
C1000       C  0.04467863  0.68822947  0.49895157     0.61900
F1001       F  0.18546335  0.58766083  0.38265731    -0.23300
F1002       F  0.21760823  0.65118514  0.38702125    -0.20600
F1003       F  0.16649581  0.63893726  0.33725280    -0.20300
F1004       F  0.05383736  0.67337439  0.53920178    -0.20400
F1005       F  0.00461154  0.67353040  0.48654008    -0.20700
F1006       F  0.04261261  0.73233316  0.50082801    -0.23300
C1007       C  0.40772986  0.12557597  0.59804880    -0.06200
C1008       C  0.44438589  0.10000323  0.60438815    -0.00300
C1009       C  0.45589786  0.08868489  0.64636112    -0.08800
C1010       C  0.43072167  0.10419775  0.68035739    -0.06200
C1011       C  0.39298925  0.12888700  0.67442781    -0.00300
C1012       C  0.38096715  0.13926061  0.63191365    -0.08700
C1013       C  0.33946071  0.16292261  0.62124906     0.61600
H1014       H  0.39898327  0.13302407  0.56568242     0.12300
H1015       H  0.44027678  0.09606384  0.71226695     0.12300
C1016       C  0.49484890  0.06060739  0.65563103     0.61900
F1017       F  0.33261865  0.16528233  0.57799059    -0.23300
F1018       F  0.34132832  0.20423282  0.63646147    -0.20600
F1019       F  0.30444281  0.14180722  0.63878764    -0.20300
F1020       F  0.53108831  0.07748576  0.63628416    -0.20400
F1021       F  0.48780749  0.01972725  0.64078827    -0.20700
F1022       F  0.50315443  0.05768683  0.69861626    -0.23300
C1023       C  0.65977250  0.90207441  0.64582561    -0.06200
C1024       C  0.62750642  0.88052015  0.66867837    -0.00300
C1025       C  0.58388621  0.88490975  0.65653962    -0.08800
C1026       C  0.57369633  0.91257892  0.62309502    -0.06200
C1027       C  0.60552794  0.93519320  0.60016245    -0.00300
C1028       C  0.64982267  0.92911614  0.61126787    -0.08700
C1029       C  0.68672648  0.94989181  0.58689019     0.61600
H1030       H  0.69300338  0.89757584  0.65554631     0.12300
H1031       H  0.54010275  0.91608841  0.61436486     0.12300
C1032       C  0.54820795  0.85934530  0.67797447     0.61900
F1033       F  0.72658869  0.94041427  0.60437637    -0.23300
F1034       F  0.68210215  0.99371603  0.58720692    -0.20600
F1035       F  0.68705649  0.93542204  0.54551759    -0.20300
F1036       F  0.54206203  0.87371398  0.71893107    -0.20400
F1037       F  0.55935784  0.81658531  0.67885016    -0.20700
F1038       F  0.50926957  0.86294077  0.65677447    -0.23300
C1039       C  0.35588586  0.11778944  0.36126212    -0.06200
C1040       C  0.32422765  0.14221087  0.38184528    -0.00300
C1041       C  0.32714114  0.14816503  0.42635121    -0.08800
C1042       C  0.36003149  0.12707377  0.44918813    -0.06200
C1043       C  0.39108285  0.10154309  0.42890176    -0.00300
C1044       C  0.38976985  0.09778720  0.38385025    -0.08700
C1045       C  0.42304013  0.07166769  0.35957030     0.61600
H1046       H  0.35312223  0.11356621  0.32733366     0.12300
H1047       H  0.36201857  0.13080371  0.48324341     0.12300
C1048       C  0.29605235  0.17758766  0.44953968     0.61900
F1049       F  0.42548376  0.03107171  0.37643155    -0.23300
F1050       F  0.46310284  0.09099180  0.36192691    -0.20600
F1051       F  0.41257198  0.06784788  0.31713313    -0.20300
F1052       F  0.25551894  0.15923397  0.45168703    -0.20400
F1053       F  0.29329483  0.21617226  0.42836824    -0.20700
F1054       F  0.30962884  0.18583835  0.49044757    -0.23300
C1055       C  0.36131141  0.84721979  0.57943863    -0.06200
C1056       C  0.32642708  0.86649066  0.60083596    -0.00300
C1057       C  0.32747226  0.91089186  0.60856529    -0.08800
C1058       C  0.36147636  0.93505794  0.59146547    -0.06200
C1059       C  0.39480129  0.91679951  0.56685262    -0.00300
C1060       C  0.39595519  0.87160820  0.56247717    -0.08700
C1061       C  0.43283065  0.84914249  0.53977954     0.61600
H1062       H  0.36054581  0.81296091  0.57512273     0.12300
H1063       H  0.36156811  0.96920069  0.59657692     0.12300
C1064       C  0.29313887  0.93278429  0.63548785     0.61900
F1065       F  0.42754975  0.80528349  0.53970011    -0.23300
F1066       F  0.47136360  0.85805967  0.56002331    -0.20600
F1067       F  0.43516452  0.86267297  0.49811837    -0.20300
F1068       F  0.29015426  0.91264363  0.67439650    -0.20400
F1069       F  0.25353321  0.93113813  0.61548830    -0.20700
F1070       F  0.30277954  0.97530129  0.64266279    -0.23300
C1071       C  0.59546859  0.06014337  0.35976669    -0.06200
C1072       C  0.61695183  0.06904859  0.39774824    -0.00300
C1073       C  0.65812467  0.08844564  0.39630489    -0.08800
C1074       C  0.67448969  0.10183572  0.35661129    -0.06200
C1075       C  0.65098754  0.09654474  0.31862721    -0.00300
C1076       C  0.61116083  0.07369405  0.32018973    -0.08700
C1077       C  0.58337096  0.06535718  0.28135186     0.61600
H1078       H  0.56446571  0.04422749  0.36181730     0.12300
H1079       H  0.70536711  0.11798668  0.35523939     0.12300
C1080       C  0.68375891  0.09642531  0.43638494     0.61900
F1081       F  0.54516336  0.04465040  0.29146331    -0.23300
F1082       F  0.60553216  0.03967730  0.25303950    -0.20600
F1083       F  0.57247679  0.10360298  0.26230131    -0.20300
F1084       F  0.69230756  0.05801200  0.45623953    -0.20400
F1085       F  0.66036896  0.12220822  0.46353020    -0.20700
F1086       F  0.72282938  0.11629394  0.42799843    -0.23300
C1087       C  0.45783499  0.91539433  0.36778054    -0.06200
C1088       C  0.43129325  0.93325904  0.39934801    -0.00300
C1089       C  0.38619694  0.92332337  0.39882596    -0.08800
C1090       C  0.36964254  0.89748233  0.36583775    -0.06200
C1091       C  0.39632613  0.88071221  0.33397174    -0.00300
C1092       C  0.44150746  0.88866152  0.33584305    -0.08700
C1093       C  0.47316203  0.87017145  0.30382712     0.61600
H1094       H  0.49212139  0.92240642  0.36815196     0.12300
H1095       H  0.33530683  0.89117823  0.36389727     0.12300
C1096       C  0.35541599  0.93871316  0.43313178     0.61900
F1097       F  0.51405195  0.86615899  0.32111649    -0.23300
F1098       F  0.47564774  0.89699437  0.26914644    -0.20600
F1099       F  0.46041526  0.82998261  0.29077932    -0.20300
F1100       F  0.35343819  0.98278856  0.43298948    -0.20400
F1101       F  0.36943644  0.92445321  0.47209925    -0.20700
F1102       F  0.31388075  0.92342865  0.42738995    -0.23300
C1103       C  0.63444103  0.07956369  0.60920411    -0.06200
C1104       C  0.61314550  0.10597177  0.57956791    -0.00300
C1105       C  0.62643479  0.14955616  0.57661549    -0.08800
C1106       C  0.66302579  0.16319325  0.59963290    -0.06200
C1107       C  0.68606564  0.13566084  0.62626023    -0.00300
C1108       C  0.67045727  0.09376871  0.63278669    -0.08700
C1109       C  0.69143248  0.06462807  0.66518808     0.61600
H1110       H  0.62332520  0.04708662  0.61319449     0.12300
H1111       H  0.67473098  0.19557991  0.59623671     0.12300
C1112       C  0.60212156  0.18233529  0.55031979     0.61900
F1113       F  0.66855802  0.02704451  0.67050361    -0.23300
F1114       F  0.69308490  0.08504262  0.70400380    -0.20600
F1115       F  0.73294734  0.05446939  0.65236741    -0.20300
F1116       F  0.55858332  0.18098587  0.56033810    -0.20400
F1117       F  0.60780008  0.17431479  0.50764772    -0.20700
F1118       F  0.61648510  0.22344138  0.55799475    -0.23300
C1119       C  0.61480332  0.90559054  0.40054287    -0.06200
C1120       C  0.60404509  0.89271315  0.44204324    -0.00300
C1121       C  0.62614965  0.85740643  0.46014018    -0.08800
C1122       C  0.66073671  0.83887291  0.43751181    -0.06200
C1123       C  0.67272802  0.85338358  0.39720175    -0.00300
C1124       C  0.64835037  0.88586254  0.37739973    -0.08700
C1125       C  0.65826574  0.89986164  0.33234467     0.61600
H1126       H  0.59727961  0.93204596  0.38668174     0.12300
H1127       H  0.67949747  0.81334555  0.45152084     0.12300
C1128       C  0.61476850  0.84033259  0.50371238     0.61900
F1129       F  0.63031551  0.93150217  0.31868581    -0.23300
F1130       F  0.65433723  0.86540136  0.30529119    -0.20600
F1131       F  0.69992594  0.91548216  0.32981761    -0.20300
F1132       F  0.57243640  0.82626912  0.50406095    -0.20400
F1133       F  0.61979322  0.87206425  0.53348195    -0.20700
F1134       F  0.64091213  0.80642685  0.51529458    -0.23300
loop_ 
_geom_bond_atom_site_label_1 
_geom_bond_atom_site_label_2 
_geom_bond_distance 
_geom_bond_site_symmetry_2 
_ccdc_geom_bond_type 
O1            C9   1.294       .  A
O1          Co21   2.065   1_565  S
O2           C10   1.279       .  A
O2          Co22   2.035       .  S
O3           C11   1.256       .  A
O3          Co23   1.984       .  S
O4           C12   1.273       .  A
O4          Co24   1.956       .  S
O5           C11   1.261       .  A
O5          Co22   2.015   1_565  S
O6           C12   1.284       .  A
O6          Co21   2.034       .  S
O7           C10   1.262       .  A
O7          Co24   1.977       .  S
O8            C9   1.277       .  A
O8          Co23   1.929       .  S
C9         C1120   1.491       .  S
C10        C1043   1.498       .  S
C11        C1088   1.505       .  S
C12        C1072   1.483       .  S
O13          C26   1.257       .  A
O13         Co21   2.002       .  S
O14          C27   1.274       .  A
O14         Co22   1.852   1_565  S
O15          C28   1.299       .  A
O15         Co23   2.066       .  S
O16          C29   1.281       .  A
O16         Co24   2.045       .  S
O17          C29   1.263       .  A
O17         Co22   1.965       .  S
O18          C28   1.277       .  A
O18         Co21   1.919   1_565  S
O19          C26   1.256       .  A
O19         Co24   2.007       .  S
O20          C27   1.313       .  A
O20         Co23   2.138       .  S
Co21         O25   1.984       .  S
Co22         O25   1.902       .  S
Co23         O25   2.054   1_565  S
Co24         O25   2.037       .  S
C26        C1104   1.512       .  S
C27        C1059   1.503       .  S
C28        C1027   1.501       .  S
C29        C1008   1.494       .  S
O30          C38   1.231       .  A
O30         Co50   1.926   1_655  S
O31          C39   1.228       .  A
O31         Co51   1.939   1_655  S
O32          C40   1.232       .  A
O32         Co52   1.936       .  S
O33          C41   1.229       .  A
O33         Co53   1.929   1_655  S
O34          C40   1.272       .  A
O34         Co51   2.109   1_655  S
O35          C41   1.278       .  A
O35         Co50   2.113   1_655  S
O36          C39   1.272       .  A
O36         Co53   2.106   1_655  S
O37          C38   1.269       .  A
O37         Co52   2.086       .  S
C38         C976   1.485       .  S
C39         C963   1.490       .  S
C40         C896   1.507       .  S
C41         C931   1.502       .  S
O42          C55   1.235       .  A
O42         Co50   1.937       .  S
O43          C56   1.226       .  A
O43         Co51   1.924       .  S
O44          C57   1.242       .  A
O44         Co52   1.932   1_455  S
O45          C58   1.228       .  A
O45         Co53   1.925       .  S
O46          C58   1.277       .  A
O46         Co51   2.126       .  S
O47          C57   1.280       .  A
O47         Co50   2.104       .  S
O48          C55   1.270       .  A
O48         Co53   2.094       .  S
O49          C56   1.277       .  A
O49         Co52   2.112   1_455  S
Co50         O54   2.109       .  S
Co51         O54   2.110       .  S
Co52         O54   2.151   1_655  S
Co53         O54   2.113       .  S
C55         C912   1.510       .  S
C56         C880   1.498       .  S
C57         C992   1.513       .  S
C58         C944   1.515       .  S
O59          C67   1.270       .  A
O59         Co79   2.023   1_556  S
O60          C68   1.298       .  A
O60         Co80   2.090       .  S
O61          C69   1.255       .  A
O61         Co81   1.941       .  S
O62          C70   1.266       .  A
O62         Co82   1.963       .  S
O63          C69   1.274       .  A
O63         Co80   2.042   1_556  S
O64          C70   1.284       .  A
O64         Co79   2.049       .  S
O65          C68   1.277       .  A
O65         Co82   1.909       .  S
O66          C67   1.246       .  A
O66         Co81   1.912       .  S
C67         C864   1.478       .  S
C68         C784   1.498       .  S
C69         C771   1.488       .  S
C70         C755   1.512       .  S
O71          C84   1.256       .  A
O71         Co79   1.962       .  S
O72          C85   1.260       .  A
O72         Co80   1.988   1_556  S
O73          C86   1.281       .  A
O73         Co81   2.036       .  S
O74          C87   1.260       .  A
O74         Co82   2.032       .  S
O75          C87   1.249       .  A
O75         Co80   1.943       .  S
O76          C86   1.267       .  A
O76         Co79   1.970   1_556  S
O77          C84   1.278       .  A
O77         Co82   2.058       .  S
O78          C85   1.255       .  A
O78         Co81   1.987       .  S
Co79         O83   2.059       .  S
Co80         O83   2.117       .  S
Co81         O83   2.003   1_556  S
Co82         O83   1.988       .  S
C84         C848   1.502       .  S
C85         C800   1.477       .  S
C86         C835   1.502       .  S
C87         C816   1.497       .  S
C88         C736   1.474       .  S
C88          N89   1.362       .  A
C88          N93   1.355       .  A
N89          C90   1.364       .  A
C90          C98   1.476       .  S
C90          N91   1.364       .  A
N91          C92   1.357       .  A
C92        C1024   1.480       .  S
C92          N93   1.352       .  A
C94         C108   1.467       .  S
C94          N95   1.364       .  A
C94          N99   1.365       .  A
N95          C96   1.360       .  A
C96         C104   1.467       .  S
C96          N97   1.356       .  A
N97          C98   1.352       .  A
C98          N99   1.359       .  A
C100        C979   1.475       .  S
C100        N101   1.350       .  A
C100        N105   1.369       .  A
N101        C102   1.346       .  A
C102        C720   1.450       .  S
C102        N103   1.346       .  A
N103        C104   1.355       .  A
C104        N105   1.368       .  A
C106        C707   1.486       .  S
C106        N107   1.363       .  A
C106        N111   1.360       .  A
N107        C108   1.363       .  A
C108        N109   1.355       .  A
N109        C110   1.354       .  A
C110        C803   1.479       .  S
C110        N111   1.360       .  A
C112        C126   1.490       .  S
C112        N113   1.366       .  A
C112        N117   1.357       .  A
N113        C114   1.369       .  A
C114        C132   1.483       .  S
C114        N115   1.362       .  A
N115        C116   1.362       .  A
C116        C120   1.469       .  S
C116        N117   1.360       .  A
C118        C867   1.481       .  S
C118        N119   1.354       .  A
C118        N123   1.352       .  A
N119        C120   1.359       .  A
C120        N121   1.368       .  A
N121        C122   1.366       .  A
C122        C688   1.480       .  S
C122        N123   1.350       .  A
C124        C675   1.497       .  S
C124        N125   1.365       .  A
C124        N129   1.359       .  A
N125        C126   1.368       .  A
C126        N127   1.362       .  A
N127        C128   1.363       .  A
C128       C1011   1.516       .  S
C128        N129   1.364       .  A
C130        C656   1.466       .  S
C130        N131   1.354       .  A
C130        N135   1.348       .  A
N131        C132   1.357       .  A
C132        N133   1.375       .  A
N133        C134   1.375       .  A
C134        C947   1.502       .  S
C134        N135   1.351       .  A
O136        C144   1.263       .  A
O136       Co156   2.025   1_565  S
O137        C145   1.260       .  A
O137       Co157   2.011   1_565  S
O138        C146   1.260       .  A
O138       Co158   1.952   1_554  S
O139        C147   1.264       .  A
O139       Co159   1.963       .  S
O140        C146   1.284       .  A
O140       Co157   2.089   1_565  S
O141        C147   1.286       .  A
O141       Co156   2.094   1_565  S
O142        C145   1.257       .  A
O142       Co159   1.984   1_554  S
O143        C144   1.251       .  A
O143       Co158   1.970       .  S
C144        C739   1.485       .  S
C145        C608   1.503       .  S
C146        C563   1.510       .  S
C147        C576   1.528       .  S
O148        C161   1.249       .  A
O148       Co156   1.962       .  S
O149        C162   1.253       .  A
O149       Co157   1.965       .  S
O150        C163   1.282       .  A
O150       Co158   2.077   1_545  S
O151        C164   1.283       .  A
O151       Co159   2.077   1_544  S
O152        C164   1.256       .  A
O152       Co157   1.953       .  S
O153        C163   1.257       .  A
O153       Co156   1.951       .  S
O154        C161   1.266       .  A
O154       Co159   2.055   1_545  S
O155        C162   1.264       .  A
O155       Co158   2.051   1_544  S
Co156       O160   2.108   1_545  S
Co157       O160   2.105   1_544  S
Co158       O160   2.123       .  S
Co159       O160   2.133       .  S
C161        C672   1.519       .  S
C162        C592   1.518       .  S
C163        C640   1.497       .  S
C164        C624   1.507       .  S
C165        C175   1.502       .  S
C165        N166   1.371       .  A
C165        N170   1.363       .  A
N166        C167   1.370       .  A
C167        C185   1.499       .  S
C167        N168   1.364       .  A
N168        C169   1.365       .  A
C169        C179   1.488       .  S
C169        N170   1.366       .  A
C171        C832   1.510       .  S
C171        N172   1.361       .  A
C171        N176   1.363       .  A
N172        C173   1.360       .  A
C173        C579   1.507       .  S
C173        N174   1.373       .  A
N174        C175   1.376       .  A
C175        N176   1.365       .  A
C177        C544   1.495       .  S
C177        N178   1.366       .  A
C177        N182   1.359       .  A
N178        C179   1.368       .  A
C179        N180   1.364       .  A
N180        C181   1.361       .  A
C181       C1056   1.487       .  S
C181        N182   1.360       .  A
C183        C915   1.521       .  S
C183        N184   1.372       .  A
C183        N188   1.354       .  A
N184        C185   1.374       .  A
C185        N186   1.366       .  A
N186        C187   1.363       .  A
C187        C528   1.478       .  S
C187        N188   1.351       .  A
C189        C203   1.481       .  S
C189        N190   1.365       .  A
C189        N194   1.376       .  A
N190        C191   1.356       .  A
C191        C209   1.485       .  S
C191        N192   1.356       .  A
N192        C193   1.361       .  A
C193        C197   1.499       .  S
C193        N194   1.369       .  A
C195        C515   1.474       .  S
C195        N196   1.352       .  A
C195        N200   1.348       .  A
N196        C197   1.361       .  A
C197        N198   1.378       .  A
N198        C199   1.380       .  A
C199        C960   1.494       .  S
C199        N200   1.353       .  A
C201        C496   1.485       .  S
C201        N202   1.363       .  A
C201        N206   1.358       .  A
N202        C203   1.364       .  A
C203        N204   1.365       .  A
N204        C205   1.362       .  A
C205        C787   1.510       .  S
C205        N206   1.361       .  A
C207       C1075   1.501       .  S
C207        N208   1.358       .  A
C207        N212   1.356       .  A
N208        C209   1.360       .  A
C209        N210   1.369       .  A
N210        C211   1.369       .  A
C211        C595   1.493       .  S
C211        N212   1.358       .  A
O213        C221   1.255       .  A
O213       Co233   1.987       .  S
O214        C222   1.279       .  A
O214       Co234   1.865       .  S
O215        C223   1.273       .  A
O215       Co235   2.024   1_456  S
O216        C224   1.299       .  A
O216       Co236   2.088   1_556  S
O217        C223   1.265       .  A
O217       Co234   1.966       .  S
O218        C224   1.266       .  A
O218       Co233   1.902       .  S
O219        C222   1.314       .  A
O219       Co236   2.132   1_456  S
O220        C221   1.265       .  A
O220       Co235   2.028   1_556  S
C221        C704   1.511       .  S
C222        C691   1.479       .  S
C223        C531   1.485       .  S
C224        C435   1.492       .  S
O225        C238   1.294       .  A
O225       Co233   2.068   1_554  S
O226        C239   1.284       .  A
O226       Co234   2.037   1_554  S
O227        C240   1.271       .  A
O227       Co235   1.970       .  S
O228        C241   1.256       .  A
O228       Co236   1.982   1_455  S
O229        C241   1.252       .  A
O229       Co234   1.996   1_554  S
O230        C240   1.271       .  A
O230       Co233   2.008   1_554  S
O231        C238   1.281       .  A
O231       Co236   1.934       .  S
O232        C239   1.273       .  A
O232       Co235   1.988   1_455  S
Co233       O237   1.969   1_656  S
Co234       O237   1.897   1_556  S
Co235       O237   2.040   1_655  S
Co236       O237   2.054   1_655  S
C238        C499   1.496       .  S
C239        C480   1.512       .  S
C240        C451   1.496       .  S
C241        C464   1.500       .  S
C242        C416   1.485       .  S
C242        N243   1.367       .  A
C242        N247   1.352       .  A
N243        C244   1.371       .  A
C244        C248   1.499       .  S
C244        N245   1.373       .  A
N245        C246   1.369       .  A
C246       C1040   1.491       .  S
C246        N247   1.351       .  A
C248        N249   1.371       .  A
C248        N253   1.374       .  A
N249        C250   1.367       .  A
C250        C262   1.495       .  S
C250        N251   1.360       .  A
N251        C252   1.361       .  A
C252        C258   1.498       .  S
C252        N253   1.369       .  A
C254        C883   1.482       .  S
C254        N255   1.347       .  A
C254        N259   1.375       .  A
N255        C256   1.346       .  A
C256        C467   1.468       .  S
C256        N257   1.359       .  A
N257        C258   1.366       .  A
C258        N259   1.375       .  A
C260        C752   1.499       .  S
C260        N261   1.361       .  A
C260        N265   1.356       .  A
N261        C262   1.366       .  A
C262        N263   1.371       .  A
N263        C264   1.370       .  A
C264        C627   1.489       .  S
C264        N265   1.358       .  A
C266        C274   1.492       .  S
C266        N267   1.366       .  A
C266        N271   1.367       .  A
N267        C268   1.361       .  A
C268        C282   1.492       .  S
C268        N269   1.361       .  A
N269        C270   1.365       .  A
C270        C286   1.486       .  S
C270        N271   1.369       .  A
C272        C928   1.491       .  S
C272        N273   1.375       .  A
C272        N277   1.354       .  A
N273        C274   1.375       .  A
C274        N275   1.360       .  A
N275        C276   1.355       .  A
C276        C432   1.473       .  S
C276        N277   1.353       .  A
C278        C643   1.488       .  S
C278        N279   1.359       .  A
C278        N283   1.366       .  A
N279        C280   1.357       .  A
C280        C768   1.485       .  S
C280        N281   1.363       .  A
N281        C282   1.364       .  A
C282        N283   1.367       .  A
C284       C1107   1.491       .  S
C284        N285   1.359       .  A
C284        N289   1.360       .  A
N285        C286   1.362       .  A
C286        N287   1.369       .  A
N287        C288   1.369       .  A
C288        C400   1.498       .  S
C288        N289   1.363       .  A
C290        C300   1.478       .  S
C290        N291   1.371       .  A
C290        N295   1.361       .  A
N291        C292   1.369       .  A
C292        C306   1.496       .  S
C292        N293   1.367       .  A
N293        C294   1.363       .  A
C294        C312   1.488       .  S
C294        N295   1.352       .  A
C296       C1123   1.477       .  S
C296        N297   1.355       .  A
C296        N301   1.354       .  A
N297        C298   1.359       .  A
C298        C384   1.489       .  S
C298        N299   1.369       .  A
N299        C300   1.368       .  A
C300        N301   1.360       .  A
C302        C448   1.467       .  S
C302        N303   1.348       .  A
C302        N307   1.352       .  A
N303        C304   1.356       .  A
C304        C899   1.525       .  S
C304        N305   1.380       .  A
N305        C306   1.379       .  A
C306        N307   1.358       .  A
C308        C560   1.494       .  S
C308        N309   1.358       .  A
C308        N313   1.369       .  A
N309        C310   1.357       .  A
C310        C819   1.488       .  S
C310        N311   1.359       .  A
N311        C312   1.360       .  A
C312        N313   1.372       .  A
C314        C328   1.494       .  S
C314        N315   1.369       .  A
C314        N319   1.365       .  A
N315        C316   1.370       .  A
C316        C336   1.497       .  S
C316        N317   1.368       .  A
N317        C318   1.366       .  A
C318        C322   1.496       .  S
C318        N319   1.362       .  A
C320       C1091   1.493       .  S
C320        N321   1.368       .  A
C320        N325   1.348       .  A
N321        C322   1.373       .  A
C322        N323   1.370       .  A
N323        C324   1.366       .  A
C324        C611   1.489       .  S
C324        N325   1.351       .  A
C326        C995   1.526       .  S
C326        N327   1.375       .  A
C326        N331   1.358       .  A
N327        C328   1.373       .  A
C328        N329   1.362       .  A
N329        C330   1.357       .  A
C330        C368   1.477       .  S
C330        N331   1.353       .  A
C332        C851   1.489       .  S
C332        N333   1.357       .  A
C332        N337   1.364       .  A
N333        C334   1.358       .  A
C334        C483   1.504       .  S
C334        N335   1.371       .  A
N335        C336   1.371       .  A
C336        N337   1.366       .  A
O338        C346   1.264       .  A
O338       Co358   1.900       .  S
O339        C347   1.259       .  A
O339       Co359   1.969   1_455  S
O340        C348   1.259       .  A
O340       Co360   2.004   1_545  S
O341        C349   1.274       .  A
O341       Co361   2.022       .  S
O342        C348   1.254       .  A
O342       Co359   1.971       .  S
O343        C349   1.270       .  A
O343       Co358   1.976   1_455  S
O344        C347   1.276       .  A
O344       Co361   2.048   1_545  S
O345        C346   1.301       .  A
O345       Co360   2.116       .  S
C346        C387   1.501       .  S
C347        C419   1.493       .  S
C348        C512   1.480       .  S
C349        C371   1.497       .  S
O350        C363   1.269       .  A
O350       Co358   2.032   1_455  S
O351        C364   1.281       .  A
O351       Co359   2.047       .  S
O352        C365   1.262       .  A
O352       Co360   1.867       .  S
O353        C366   1.254       .  A
O353       Co361   1.948   1_545  S
O354        C366   1.271       .  A
O354       Co359   2.009   1_455  S
O355        C365   1.298       .  A
O355       Co358   2.105       .  S
O356        C363   1.258       .  A
O356       Co361   1.979       .  S
O357        C364   1.271       .  A
O357       Co360   1.992   1_545  S
Co358       O362   2.017   1_665  S
Co359       O362   2.044   1_655  S
Co360       O362   2.019   1_665  S
Co361       O362   2.053   1_565  S
C363        C547   1.506       .  S
C364        C403   1.521       .  S
C365        C723   1.471       .  S
C366        C659   1.467       .  S
C367        C368   1.399       .  A
C367        C372   1.410       .  A
C367        H374   1.085       .  S
C368        C369   1.414       .  A
C369        C370   1.404       .  A
C369        C376   1.518       .  S
C370        C371   1.410       .  A
C370        H375   1.084       .  S
C371        C372   1.429       .  A
C372        C373   1.518       .  S
C373        F377   1.382       .  S
C373        F378   1.378       .  S
C373        F379   1.385       .  S
C376        F380   1.383       .  S
C376        F381   1.383       .  S
C376        F382   1.384       .  S
C383        C384   1.401       .  A
C383        C388   1.415       .  A
C383        H390   1.083       .  S
C384        C385   1.418       .  A
C385        C386   1.408       .  A
C385        C392   1.518       .  S
C386        C387   1.405       .  A
C386        H391   1.082       .  S
C387        C388   1.430       .  A
C388        C389   1.521       .  S
C389        F393   1.385       .  S
C389        F394   1.383       .  S
C389        F395   1.383       .  S
C392        F396   1.381       .  S
C392        F397   1.383       .  S
C392        F398   1.385       .  S
C399        C400   1.401       .  A
C399        C404   1.416       .  A
C399        H406   1.083       .  S
C400        C401   1.414       .  A
C401        C402   1.418       .  A
C401        C408   1.516       .  S
C402        C403   1.416       .  A
C402        H407   1.082       .  S
C403        C404   1.430       .  A
C404        C405   1.517       .  S
C405        F409   1.377   1_545  S
C405        F410   1.385       .  S
C405        F411   1.383       .  S
C408        F412   1.383       .  S
C408        F413   1.383       .  S
C408        F414   1.384       .  S
C415        C416   1.402       .  A
C415        C420   1.414       .  A
C415        H422   1.083       .  S
C416        C417   1.421       .  A
C417        C418   1.410       .  A
C417        C424   1.518       .  S
C418        C419   1.401       .  A
C418        H423   1.081       .  S
C419        C420   1.422       .  A
C420        C421   1.516       .  S
C421        F425   1.383       .  S
C421        F426   1.384       .  S
C421        F427   1.381       .  S
C424        F428   1.383       .  S
C424        F429   1.383       .  S
C424        F430   1.384       .  S
C431        C432   1.399       .  A
C431        C436   1.411       .  A
C431        H438   1.083       .  S
C432        C433   1.416       .  A
C433        C434   1.400       .  A
C433        C440   1.521       .  S
C434        C435   1.405       .  A
C434        H439   1.082       .  S
C435        C436   1.428       .  A
C436        C437   1.521       .  S
C437        F441   1.385       .  S
C437        F442   1.383       .  S
C437        F443   1.384       .  S
C440        F444   1.382       .  S
C440        F445   1.383       .  S
C440        F446   1.385       .  S
C447        C448   1.399       .  A
C447        C452   1.413       .  A
C447        H454   1.083       .  S
C448        C449   1.410       .  A
C449        C450   1.398       .  A
C449        C456   1.522       .  S
C450        C451   1.409       .  A
C450        H455   1.082       .  S
C451        C452   1.430       .  A
C452        C453   1.521       .  S
C453        F457   1.382       .  S
C453        F458   1.384       .  S
C453        F459   1.384       .  S
C456        F460   1.383       .  S
C456        F461   1.383       .  S
C456        F462   1.384       .  S
C463        C464   1.407       .  A
C463        C468   1.401       .  A
C463        H470   1.084       .  S
C464        C465   1.434       .  A
C465        C466   1.411       .  A
C465        C472   1.520       .  S
C466        C467   1.395       .  A
C466        H471   1.083       .  S
C467        C468   1.415       .  A
C468        C469   1.521       .  S
C469        F473   1.384       .  S
C469        F474   1.383       .  S
C469        F475   1.382       .  S
C472        F476   1.379       .  S
C472        F477   1.382       .  S
C472        F478   1.385       .  S
C479        C480   1.414       .  A
C479        C484   1.416       .  A
C479        H486   1.082       .  S
C480        C481   1.423       .  A
C481        C482   1.418       .  A
C481        C488   1.520       .  S
C482        C483   1.411       .  A
C482        H487   1.083       .  S
C483        C484   1.416       .  A
C484        C485   1.518       .  S
C485        F489   1.384       .  S
C485        F490   1.383       .  S
C485        F491   1.384       .  S
C488        F492   1.384   1_554  S
C488        F493   1.383   1_554  S
C488        F494   1.384   1_554  S
C495        C496   1.397       .  A
C495        C500   1.408       .  A
C495        H502   1.085       .  S
C496        C497   1.416       .  A
C497        C498   1.416       .  A
C497        C504   1.516       .  S
C498        C499   1.409       .  A
C498        H503   1.083       .  S
C499        C500   1.427       .  A
C500        C501   1.518       .  S
C501        F505   1.384       .  S
C501        F506   1.383       .  S
C501        F507   1.377       .  S
C504        F508   1.383       .  S
C504        F509   1.383       .  S
C504        F510   1.385       .  S
C511        C512   1.407       .  A
C511        C516   1.406       .  A
C511        H518   1.084       .  S
C512        C513   1.418       .  A
C513        C514   1.404       .  A
C513        C520   1.516       .  S
C514        C515   1.401       .  A
C514        H519   1.085       .  S
C515        C516   1.415       .  A
C516        C517   1.517       .  S
C517        F521   1.385       .  S
C517        F522   1.384       .  S
C517        F523   1.382       .  S
C520        F524   1.382       .  S
C520        F525   1.383       .  S
C520        F526   1.384       .  S
C527        C528   1.406       .  A
C527        C532   1.414       .  A
C527        H534   1.083       .  S
C528        C529   1.412       .  A
C529        C530   1.405       .  A
C529        C536   1.518       .  S
C530        C531   1.405       .  A
C530        H535   1.082       .  S
C531        C532   1.416       .  A
C532        C533   1.516       .  S
C533        F537   1.384       .  S
C533        F538   1.382       .  S
C533        F539   1.383   1_455  S
C536        F540   1.383       .  S
C536        F541   1.383       .  S
C536        F542   1.385       .  S
C543        C544   1.401       .  A
C543        C548   1.412       .  A
C543        H550   1.085       .  S
C544        C545   1.417       .  A
C545        C546   1.416       .  A
C545        C552   1.517       .  S
C546        C547   1.412       .  A
C546        H551   1.083       .  S
C547        C548   1.427       .  A
C548        C549   1.517       .  S
C549        F553   1.384       .  S
C549        F554   1.377       .  S
C549        F555   1.383       .  S
C552        F556   1.383       .  S
C552        F557   1.382       .  S
C552        F558   1.385       .  S
C559        C560   1.409       .  A
C559        C564   1.426       .  A
C559        H566   1.083       .  S
C560        C561   1.416       .  A
C561        C562   1.403       .  A
C561        C568   1.518       .  S
C562        C563   1.408       .  A
C562        H567   1.085       .  S
C563        C564   1.423       .  A
C564        C565   1.511       .  S
C565        F569   1.383       .  S
C565        F570   1.377       .  S
C565        F571   1.383       .  S
C568        F572   1.382       .  S
C568        F573   1.384       .  S
C568        F574   1.382       .  S
C575        C576   1.412       .  A
C575        C580   1.409       .  A
C575        H582   1.084       .  S
C576        C577   1.430       .  A
C577        C578   1.432       .  A
C577        C584   1.516       .  S
C578        C579   1.412       .  A
C578        H583   1.082       .  S
C579        C580   1.418       .  A
C580        C581   1.521       .  S
C581        F585   1.383       .  S
C581        F586   1.382       .  S
C581        F587   1.384       .  S
C584        F588   1.380       .  S
C584        F589   1.383       .  S
C584        F590   1.385       .  S
C591        C592   1.414       .  A
C591        C596   1.414       .  A
C591        H598   1.081       .  S
C592        C593   1.431       .  A
C593        C594   1.417       .  A
C593        C600   1.520       .  S
C594        C595   1.402       .  A
C594        H599   1.084       .  S
C595        C596   1.413       .  A
C596        C597   1.518       .  S
C597        F601   1.384       .  S
C597        F602   1.382       .  S
C597        F603   1.383       .  S
C600        F604   1.381       .  S
C600        F605   1.379   1_545  S
C600        F606   1.385   1_545  S
C607        C608   1.413       .  A
C607        C612   1.417       .  A
C607        H614   1.083       .  S
C608        C609   1.429       .  A
C609        C610   1.405       .  A
C609        C616   1.524       .  S
C610        C611   1.402       .  A
C610        H615   1.083       .  S
C611        C612   1.414       .  A
C612        C613   1.516       .  S
C613        F617   1.384       .  S
C613        F618   1.382       .  S
C613        F619   1.384       .  S
C616        F620   1.382   1_565  S
C616        F621   1.383   1_565  S
C616        F622   1.385   1_565  S
C623        C624   1.411       .  A
C623        C628   1.422       .  A
C623        H630   1.083       .  S
C624        C625   1.432       .  A
C625        C626   1.406       .  A
C625        C632   1.522       .  S
C626        C627   1.395       .  A
C626        H631   1.084       .  S
C627        C628   1.418       .  A
C628        C629   1.514       .  S
C629        F633   1.385       .  S
C629        F634   1.383       .  S
C629        F635   1.383       .  S
C632        F636   1.383       .  S
C632        F637   1.382       .  S
C632        F638   1.385       .  S
C639        C640   1.409       .  A
C639        C644   1.409       .  A
C639        H646   1.084       .  S
C640        C641   1.421       .  A
C641        C642   1.415       .  A
C641        C648   1.511       .  S
C642        C643   1.405       .  A
C642        H647   1.084       .  S
C643        C644   1.413       .  A
C644        C645   1.517       .  S
C645        F649   1.382       .  S
C645        F650   1.385       .  S
C645        F651   1.382       .  S
C648        F652   1.377       .  S
C648        F653   1.381   1_556  S
C648        F654   1.384       .  S
C655        C656   1.399       .  A
C655        C660   1.402       .  A
C655        H662   1.083       .  S
C656        C657   1.418       .  A
C657        C658   1.398       .  A
C657        C664   1.518       .  S
C658        C659   1.399       .  A
C658        H663   1.085       .  S
C659        C660   1.421       .  A
C660        C661   1.521       .  S
C661        F665   1.385       .  S
C661        F666   1.382       .  S
C661        F667   1.382       .  S
C664        F668   1.383       .  S
C664        F669   1.383       .  S
C664        F670   1.384   1_455  S
C671        C672   1.415       .  A
C671        C676   1.414       .  A
C671        H678   1.082       .  S
C672        C673   1.428       .  A
C673        C674   1.421       .  A
C673        C680   1.518       .  S
C674        C675   1.404       .  A
C674        H679   1.083       .  S
C675        C676   1.414       .  A
C676        C677   1.519       .  S
C677        F681   1.385       .  S
C677        F682   1.383       .  S
C677        F683   1.383       .  S
C680        F684   1.383       .  S
C680        F685   1.383   1_545  S
C680        F686   1.385       .  S
C687        C688   1.401       .  A
C687        C692   1.408       .  A
C687        H694   1.083       .  S
C688        C689   1.421       .  A
C689        C690   1.410       .  A
C689        C696   1.519       .  S
C690        C691   1.400       .  A
C690        H695   1.083       .  S
C691        C692   1.417       .  A
C692        C693   1.517       .  S
C693        F697   1.382       .  S
C693        F698   1.382       .  S
C693        F699   1.385       .  S
C696        F700   1.382       .  S
C696        F701   1.383       .  S
C696        F702   1.385   1_556  S
C703        C704   1.415       .  A
C703        C708   1.411       .  A
C703        H710   1.082       .  S
C704        C705   1.429       .  A
C705        C706   1.415       .  A
C705        C712   1.519       .  S
C706        C707   1.401       .  A
C706        H711   1.083       .  S
C707        C708   1.411       .  A
C708        C709   1.518       .  S
C709        F713   1.384       .  S
C709        F714   1.384       .  S
C709        F715   1.383       .  S
C712        F716   1.383       .  S
C712        F717   1.383       .  S
C712        F718   1.385       .  S
C719        C720   1.398       .  A
C719        C724   1.399       .  A
C719        H726   1.084       .  S
C720        C721   1.405       .  A
C721        C722   1.399       .  A
C721        C728   1.519       .  S
C722        C723   1.409       .  A
C722        H727   1.083       .  S
C723        C724   1.415       .  A
C724        C725   1.513       .  S
C725        F729   1.382       .  S
C725        F730   1.385       .  S
C725        F731   1.383       .  S
C728        F732   1.383       .  S
C728        F733   1.383       .  S
C728        F734   1.385       .  S
C735        C736   1.398       .  A
C735        C740   1.402       .  A
C735        H742   1.084       .  S
C736        C737   1.413       .  A
C737        C738   1.413       .  A
C737        C744   1.514       .  S
C738        C739   1.408       .  A
C738        H743   1.083       .  S
C739        C740   1.420       .  A
C740        C741   1.518       .  S
C741        F745   1.385       .  S
C741        F746   1.383       .  S
C741        F747   1.379   1_565  S
C744        F748   1.383       .  S
C744        F749   1.385       .  S
C744        F750   1.383       .  S
C751        C752   1.406       .  A
C751        C756   1.413       .  A
C751        H758   1.083       .  S
C752        C753   1.417       .  A
C753        C754   1.414       .  A
C753        C760   1.518       .  S
C754        C755   1.413       .  A
C754        H759   1.082       .  S
C755        C756   1.430       .  A
C756        C757   1.524       .  S
C757        F761   1.385       .  S
C757        F762   1.382       .  S
C757        F763   1.383       .  S
C760        F764   1.382       .  S
C760        F765   1.384       .  S
C760        F766   1.385       .  S
C767        C768   1.406       .  A
C767        C772   1.415       .  A
C767        H774   1.083       .  S
C768        C769   1.415       .  A
C769        C770   1.406       .  A
C769        C776   1.518       .  S
C770        C771   1.406       .  A
C770        H775   1.083       .  S
C771        C772   1.417       .  A
C772        C773   1.517   1_556  S
C773        F777   1.384       .  S
C773        F778   1.383       .  S
C773        F779   1.382       .  S
C776        F780   1.382       .  S
C776        F781   1.382       .  S
C776        F782   1.385       .  S
C783        C784   1.407       .  A
C783        C788   1.419       .  A
C783        H790   1.082       .  S
C784        C785   1.423       .  A
C785        C786   1.405       .  A
C785        C792   1.522       .  S
C786        C787   1.407       .  A
C786        H791   1.084       .  S
C787        C788   1.428       .  A
C788        C789   1.519       .  S
C789        F793   1.385       .  S
C789        F794   1.383       .  S
C789        F795   1.383       .  S
C792        F796   1.377       .  S
C792        F797   1.383       .  S
C792        F798   1.385       .  S
C799        C800   1.403       .  A
C799        C804   1.404       .  A
C799        H806   1.083       .  S
C800        C801   1.418       .  A
C801        C802   1.408       .  A
C801        C808   1.518       .  S
C802        C803   1.403       .  A
C802        H807   1.083       .  S
C803        C804   1.418       .  A
C804        C805   1.520       .  S
C805        F809   1.385       .  S
C805        F810   1.383       .  S
C805        F811   1.383       .  S
C808        F812   1.383       .  S
C808        F813   1.381       .  S
C808        F814   1.385       .  S
C815        C816   1.406       .  A
C815        C820   1.403       .  A
C815        H822   1.082       .  S
C816        C817   1.426       .  A
C817        C818   1.412       .  A
C817        C824   1.521       .  S
C818        C819   1.404       .  A
C818        H823   1.083       .  S
C819        C820   1.418       .  A
C820        C821   1.517       .  S
C821        F825   1.385       .  S
C821        F826   1.382       .  S
C821        F827   1.382       .  S
C824        F828   1.381       .  S
C824        F829   1.382       .  S
C824        F830   1.384       .  S
C831        C832   1.408       .  A
C831        C836   1.409       .  A
C831        H838   1.082       .  S
C832        C833   1.427       .  A
C833        C834   1.419       .  A
C833        C840   1.518       .  S
C834        C835   1.407       .  A
C834        H839   1.083       .  S
C835        C836   1.422       .  A
C836        C837   1.520       .  S
C837        F841   1.384       .  S
C837        F842   1.381       .  S
C837        F843   1.385       .  S
C840        F844   1.383       .  S
C840        F845   1.383       .  S
C840        F846   1.385       .  S
C847        C848   1.409       .  A
C847        C852   1.419       .  A
C847        H854   1.083       .  S
C848        C849   1.433       .  A
C849        C850   1.407       .  A
C849        C856   1.516       .  S
C850        C851   1.394       .  A
C850        H855   1.085       .  S
C851        C852   1.418       .  A
C852        C853   1.516       .  S
C853        F857   1.384       .  S
C853        F858   1.382       .  S
C853        F859   1.384       .  S
C856        F860   1.369       .  S
C856        F861   1.383       .  S
C856        F862   1.382       .  S
C863        C864   1.409       .  A
C863        C868   1.408       .  A
C863        H870   1.083       .  S
C864        C865   1.414       .  A
C865        C866   1.398       .  A
C865        C872   1.520       .  S
C866        C867   1.406       .  A
C866        H871   1.083       .  S
C867        C868   1.418       .  A
C868        C869   1.521       .  S
C869        F873   1.385       .  S
C869        F874   1.383       .  S
C869        F875   1.383       .  S
C872        F876   1.382       .  S
C872        F877   1.385       .  S
C872        F878   1.383       .  S
C879        C880   1.407       .  A
C879        C884   1.420       .  A
C879        H886   1.084       .  S
C880        C881   1.435       .  A
C881        C882   1.402       .  A
C881        C888   1.516       .  S
C882        C883   1.390       .  A
C882        H887   1.086       .  S
C883        C884   1.424       .  A
C884        C885   1.516       .  S
C885        F889   1.383       .  S
C885        F890   1.383       .  S
C885        F891   1.384       .  S
C888        F892   1.384       .  S
C888        F893   1.363       .  S
C888        F894   1.381       .  S
C895        C896   1.414       .  A
C895        C900   1.420       .  A
C895        H902   1.082       .  S
C896        C897   1.412       .  A
C897        C898   1.415       .  A
C897        C904   1.517       .  S
C898        C899   1.423       .  A
C898        H903   1.081       .  S
C899        C900   1.421       .  A
C900        C901   1.518       .  S
C901        F905   1.385       .  S
C901        F906   1.383       .  S
C901        F907   1.382       .  S
C904        F908   1.383       .  S
C904        F909   1.381       .  S
C904        F910   1.384       .  S
C911        C912   1.415       .  A
C911        C916   1.415       .  A
C911        H918   1.082       .  S
C912        C913   1.415       .  A
C913        C914   1.418       .  A
C913        C920   1.519       .  S
C914        C915   1.422       .  A
C914        H919   1.081       .  S
C915        C916   1.422       .  A
C916        C917   1.520       .  S
C917        F921   1.385       .  S
C917        F922   1.383       .  S
C917        F923   1.383       .  S
C920        F924   1.382       .  S
C920        F925   1.383       .  S
C920        F926   1.385       .  S
C927        C928   1.391       .  A
C927        C932   1.405       .  A
C927        H934   1.086       .  S
C928        C929   1.422       .  A
C929        C930   1.424       .  A
C929        C936   1.515       .  S
C930        C931   1.408       .  A
C930        H935   1.083       .  S
C931        C932   1.435       .  A
C932        C933   1.521       .  S
C933        F937   1.385       .  S
C933        F938   1.372       .  S
C933        F939   1.383       .  S
C936        F940   1.384       .  S
C936        F941   1.385       .  S
C936        F942   1.382       .  S
C943        C944   1.423       .  A
C943        C948   1.412       .  A
C943        H950   1.081       .  S
C944        C945   1.413       .  A
C945        C946   1.416       .  A
C945        C952   1.511       .  S
C946        C947   1.416       .  A
C946        H951   1.083       .  S
C947        C948   1.412       .  A
C948        C949   1.519       .  S
C949        F953   1.384       .  S
C949        F954   1.383       .  S
C949        F955   1.383       .  S
C952        F956   1.384       .  S
C952        F957   1.383       .  S
C952        F958   1.379       .  S
C959        C960   1.405       .  A
C959        C964   1.417       .  A
C959        H966   1.081       .  S
C960        C961   1.420       .  A
C961        C962   1.415       .  A
C961        C968   1.520       .  S
C962        C963   1.406       .  A
C962        H967   1.072       .  S
C963        C964   1.422       .  A
C964        C965   1.517       .  S
C965        F969   1.384       .  S
C965        F970   1.383       .  S
C965        F971   1.383       .  S
C968        F972   1.383       .  S
C968        F973   1.382       .  S
C968        F974   1.383       .  S
C975        C976   1.411       .  A
C975        C980   1.403       .  A
C975        H982   1.083       .  S
C976        C977   1.410       .  A
C977        C978   1.411       .  A
C977        C984   1.511       .  S
C978        C979   1.410       .  A
C978        H983   1.084       .  S
C979        C980   1.411       .  A
C980        C981   1.520       .  S
C981        F985   1.383       .  S
C981        F986   1.384       .  S
C981        F987   1.385       .  S
C984        F988   1.377       .  S
C984        F989   1.382       .  S
C984        F990   1.385       .  S
C991        C992   1.414       .  A
C991        C996   1.417       .  A
C991        H998   1.083       .  S
C992        C993   1.417       .  A
C993        C994   1.418       .  A
C993       C1000   1.519       .  S
C994        C995   1.422       .  A
C994        H999   1.081       .  S
C995        C996   1.424       .  A
C996        C997   1.520       .  S
C997       F1001   1.385       .  S
C997       F1002   1.383       .  S
C997       F1003   1.383       .  S
C1000      F1004   1.383       .  S
C1000      F1005   1.381       .  S
C1000      F1006   1.385       .  S
C1007      C1008   1.403       .  A
C1007      C1012   1.416       .  A
C1007      H1014   1.083       .  S
C1008      C1009   1.418       .  A
C1009      C1010   1.410       .  A
C1009      C1016   1.521       .  S
C1010      C1011   1.413       .  A
C1010      H1015   1.081       .  S
C1011      C1012   1.431       .  A
C1012      C1013   1.521       .  S
C1013      F1017   1.384       .  S
C1013      F1018   1.383       .  S
C1013      F1019   1.384       .  S
C1016      F1020   1.380       .  S
C1016      F1021   1.382       .  S
C1016      F1022   1.385       .  S
C1023      C1024   1.403       .  A
C1023      C1028   1.415       .  A
C1023      H1030   1.083       .  S
C1024      C1025   1.411       .  A
C1025      C1026   1.402       .  A
C1025      C1032   1.521       .  S
C1026      C1027   1.411       .  A
C1026      H1031   1.082       .  S
C1027      C1028   1.429       .  A
C1028      C1029   1.521       .  S
C1029      F1033   1.385       .  S
C1029      F1034   1.381       .  S
C1029      F1035   1.383       .  S
C1032      F1036   1.382       .  S
C1032      F1037   1.384       .  S
C1032      F1038   1.385       .  S
C1039      C1040   1.401       .  A
C1039      C1044   1.416       .  A
C1039      H1046   1.083       .  S
C1040      C1041   1.421       .  A
C1041      C1042   1.413       .  A
C1041      C1048   1.518       .  S
C1042      C1043   1.403       .  A
C1042      H1047   1.083       .  S
C1043      C1044   1.428       .  A
C1044      C1045   1.520       .  S
C1045      F1049   1.381       .  S
C1045      F1050   1.382       .  S
C1045      F1051   1.385       .  S
C1048      F1052   1.382       .  S
C1048      F1053   1.384       .  S
C1048      F1054   1.384       .  S
C1055      C1056   1.407       .  A
C1055      C1060   1.420       .  A
C1055      H1062   1.083       .  S
C1056      C1057   1.413       .  A
C1057      C1058   1.403       .  A
C1057      C1064   1.521       .  S
C1058      C1059   1.410       .  A
C1058      H1063   1.082       .  S
C1059      C1060   1.424       .  A
C1060      C1061   1.518       .  S
C1061      F1065   1.384       .  S
C1061      F1066   1.384       .  S
C1061      F1067   1.383       .  S
C1064      F1068   1.383       .  S
C1064      F1069   1.382       .  S
C1064      F1070   1.385       .  S
C1071      C1072   1.401       .  A
C1071      C1076   1.404       .  A
C1071      H1078   1.083       .  S
C1072      C1073   1.413       .  A
C1073      C1074   1.413       .  A
C1073      C1080   1.517       .  S
C1074      C1075   1.415       .  A
C1074      H1079   1.082       .  S
C1075      C1076   1.427       .  A
C1076      C1077   1.523       .  S
C1077      F1081   1.385       .  S
C1077      F1082   1.383       .  S
C1077      F1083   1.383       .  S
C1080      F1084   1.383       .  S
C1080      F1085   1.381       .  S
C1080      F1086   1.385       .  S
C1087      C1088   1.405       .  A
C1087      C1092   1.407       .  A
C1087      H1094   1.084       .  S
C1088      C1089   1.430       .  A
C1089      C1090   1.417       .  A
C1089      C1096   1.518       .  S
C1090      C1091   1.401       .  A
C1090      H1095   1.083       .  S
C1091      C1092   1.422       .  A
C1092      C1093   1.520       .  S
C1093      F1097   1.385       .  S
C1093      F1098   1.382       .  S
C1093      F1099   1.384       .  S
C1096      F1100   1.383       .  S
C1096      F1101   1.380       .  S
C1096      F1102   1.385       .  S
C1103      C1104   1.413       .  A
C1103      C1108   1.415       .  A
C1103      H1110   1.082       .  S
C1104      C1105   1.430       .  A
C1105      C1106   1.414       .  A
C1105      C1112   1.521       .  S
C1106      C1107   1.400       .  A
C1106      H1111   1.083       .  S
C1107      C1108   1.414       .  A
C1108      C1109   1.518       .  S
C1109      F1113   1.385       .  S
C1109      F1114   1.384       .  S
C1109      F1115   1.382       .  S
C1112      F1116   1.383       .  S
C1112      F1117   1.381       .  S
C1112      F1118   1.385       .  S
C1119      C1120   1.409       .  A
C1119      C1124   1.410       .  A
C1119      H1126   1.083       .  S
C1120      C1121   1.421       .  A
C1121      C1122   1.410       .  A
C1121      C1128   1.516       .  S
C1122      C1123   1.400       .  A
C1122      H1127   1.083       .  S
C1123      C1124   1.413       .  A
C1124      C1125   1.518       .  S
C1125      F1129   1.385       .  S
C1125      F1130   1.383       .  S
C1125      F1131   1.381       .  S
C1128      F1132   1.382       .  S
C1128      F1133   1.378       .  S
C1128      F1134   1.385       .  S
