geometry optimzed in LAMMPS
_audit_creation_date              2020-11-30 
_audit_creation_method            'lammps2cif' 
_symmetry_space_group_name_H-M    'P1' 
_symmetry_Int_Tables_number       1 
_symmetry_cell_setting            triclinic 
loop_ 
_symmetry_equiv_pos_as_xyz 
  x,y,z 
_cell_length_a                    39.18681535 
_cell_length_b                    39.461522726019695 
_cell_length_c                    39.0956573354508 
_cell_angle_alpha                 90.2221741583437 
_cell_angle_beta                  90.44042766209131 
_cell_angle_gamma                 90.05945515556225 
loop_ 
_atom_site_label 
_atom_site_type_symbol 
_atom_site_fract_x 
_atom_site_fract_y 
_atom_site_fract_z 
_atom_site_charge 
C1          C  0.32197611  0.66860192  0.16896545     0.85600
C2          C  0.29809812  0.64787544  0.14495665    -0.54600
C3          C  0.31519227  0.62521610  0.12470810     0.08500
C4          C  0.35385312  0.62511599  0.13080475     0.19500
C5          C  0.34260241  0.64157108  0.18951383    -0.55400
C6          C  0.35925680  0.61840211  0.16908994     0.08600
C7          C  0.34851230  0.68451806  0.14510005    -0.54900
C8          C  0.36542203  0.66167189  0.12557741     0.09200
H9          H  0.27068986  0.65161799  0.14335979     0.13700
H10         H  0.36741537  0.60712413  0.11384498    -0.00500
H11         H  0.34417667  0.64123670  0.21723141     0.14000
H12         H  0.35456040  0.71139690  0.14478267     0.13800
C13         C  0.72740855  0.30018162  0.16456917     0.85600
C14         C  0.74429028  0.32349348  0.13801343    -0.54600
C15         C  0.72171371  0.34236013  0.11953893     0.08500
C16         C  0.68452984  0.33675062  0.12980586     0.19500
C17         C  0.70555326  0.32418256  0.18700381    -0.55400
C18         C  0.68309570  0.34350130  0.16836351     0.08600
C19         C  0.70099505  0.27915838  0.14365106    -0.54900
C20         C  0.67806015  0.29860731  0.12573984     0.09200
H21         H  0.77159861  0.32422935  0.13354101     0.13700
H22         H  0.66656039  0.35275086  0.11501249    -0.00500
H23         H  0.70767993  0.32569051  0.21467009     0.14000
H24         H  0.70020996  0.25165967  0.14367846     0.13800
C25         C  0.71440340  0.66124854  0.18012960     0.85600
C26         C  0.68895995  0.68239092  0.15853567    -0.54600
C27         C  0.66973055  0.66321472  0.13647528     0.08500
C28         C  0.67823767  0.62540133  0.13750796     0.19500
C29         C  0.69209142  0.63398074  0.19737664    -0.55400
C30         C  0.67327873  0.61503110  0.17483731     0.08600
C31         C  0.73599828  0.64161312  0.15365454    -0.54900
C32         C  0.71668894  0.62332910  0.13079085     0.09200
H33         H  0.68568539  0.70957566  0.16136283     0.13700
H34         H  0.66260189  0.61018144  0.11930965    -0.00500
H35         H  0.69108667  0.63021734  0.22485746     0.14000
H36         H  0.76360226  0.64333234  0.15221551     0.13800
C37         C  0.33199331  0.26773095  0.16748575     0.85600
C38         C  0.35693986  0.29077668  0.18817112    -0.54600
C39         C  0.37377225  0.31394114  0.16831831     0.08500
C40         C  0.36330751  0.31239317  0.13053102     0.19500
C41         C  0.30772571  0.29247913  0.14884311    -0.55400
C42         C  0.32440243  0.31639085  0.13016871     0.08600
C43         C  0.35422412  0.25228540  0.13888946    -0.54900
C44         C  0.37050875  0.27581430  0.11929125     0.09200
H45         H  0.36164909  0.28811137  0.21542537     0.13700
H46         H  0.37642986  0.33170739  0.11482618    -0.00500
H47         H  0.28016243  0.29207754  0.15146922     0.14000
H48         H  0.35680588  0.22519602  0.13460833     0.13800
O49         O  0.47729098  0.50808510  0.22185239    -0.73800
O50         O  0.55427262  0.43781863  0.22277233    -0.74800
O51         O  0.55132655  0.51009194  0.22270953    -0.63400
O52         O  0.48019576  0.43438350  0.22184149    -0.71800
O53         O  0.48299698  0.43359814  0.16524130    -0.71400
O54         O  0.55007339  0.50983973  0.16594878    -0.62600
O55         O  0.55506817  0.43983902  0.16608318    -0.75200
O56         O  0.47689508  0.50549177  0.16522411    -0.73900
Cu57       Cu  0.51553774  0.47264503  0.22441555     1.04600
Cu58       Cu  0.51599955  0.47226607  0.16384134     1.04300
C59         C  0.46475565  0.51749409  0.19303668     0.92400
C60         C  0.56779872  0.42930788  0.19426130     0.91500
C61         C  0.56293115  0.52054462  0.19409078     0.74900
C62         C  0.47133231  0.42137895  0.19301912     0.89900
C63         C  0.33143879  0.28665448  0.78146289     0.85600
C64         C  0.30976608  0.30510718  0.80896646    -0.54600
C65         C  0.32889674  0.32316304  0.83238250     0.08500
C66         C  0.36732751  0.32181892  0.82513993     0.19500
C67         C  0.35304820  0.31493216  0.76518096    -0.55400
C68         C  0.37175081  0.33340246  0.78810062     0.08600
C69         C  0.35766394  0.26531070  0.80220455    -0.54900
C70         C  0.37682407  0.28418054  0.82484922     0.09200
H71         H  0.28216766  0.30325006  0.81020739     0.13700
H72         H  0.38290266  0.33678753  0.84352334    -0.00500
H73         H  0.35374977  0.31968382  0.73785655     0.14000
H74         H  0.36174448  0.23840306  0.79808940     0.13800
C75         C  0.72528609  0.28816035  0.78473766     0.85600
C76         C  0.69814737  0.30837745  0.76403793    -0.54600
C77         C  0.67865425  0.32903478  0.78410570     0.08500
C78         C  0.68830398  0.32815503  0.82202480     0.19500
C79         C  0.74603181  0.31542378  0.80430096    -0.55400
C80         C  0.72638271  0.33668884  0.82342534     0.08600
C81         C  0.70455349  0.26972979  0.81263993    -0.54900
C82         C  0.68528684  0.29089315  0.83241108     0.09200
H83         H  0.69365148  0.30619646  0.73675349     0.13700
H84         H  0.67251002  0.34548045  0.83770541    -0.00500
H85         H  0.77353576  0.31816491  0.80238946     0.14000
H86         H  0.70532161  0.24249070  0.81643515     0.13800
C87         C  0.70689565  0.68220842  0.78513350     0.85600
C88         C  0.68418967  0.69599355  0.81387156    -0.54600
C89         C  0.67006136  0.67133627  0.83346170     0.08500
C90         C  0.67969510  0.63542236  0.82225966     0.19500
C91         C  0.73334734  0.65947741  0.80340933    -0.55400
C92         C  0.71868942  0.63463232  0.82248424     0.08600
C93         C  0.68363633  0.65767867  0.76459536    -0.54900
C94         C  0.66910749  0.63331363  0.78455280     0.09200
H95         H  0.67979461  0.72280743  0.81837177     0.13700
H96         H  0.66813412  0.61517892  0.83806646    -0.00500
H97         H  0.76077717  0.66242475  0.80104563     0.14000
H98         H  0.67800197  0.66036353  0.73750796     0.13800
C99         C  0.32122245  0.65452435  0.79575428     0.85600
C100        C  0.30242892  0.62685318  0.81594884    -0.54600
C101        C  0.32340638  0.60670523  0.83482884     0.08500
C102        C  0.36113530  0.61637687  0.83224447     0.19500
C103        C  0.34226444  0.67422033  0.82294692    -0.55400
C104        C  0.36314572  0.65391264  0.84218173     0.08600
C105        C  0.34811418  0.63505841  0.77443195    -0.54900
C106        C  0.36947430  0.61541670  0.79402644     0.09200
H107        H  0.27493572  0.62326271  0.81506572     0.13700
H108        H  0.37809514  0.60005103  0.84790774    -0.00500
H109        H  0.34073939  0.70146570  0.82656104     0.14000
H110        H  0.35071446  0.63757827  0.74693944     0.13800
O111        O  0.31565289  0.50701705  0.01940457    -0.73800
O112        O  0.32127216  0.42476379  0.95949452    -0.74800
O113        O  0.32043973  0.49483876  0.94888125    -0.63400
O114        O  0.31657563  0.43642734  0.03081428    -0.71800
O115        O  0.26049161  0.43065577  0.02517356    -0.71400
O116        O  0.26390801  0.49795576  0.94688068    -0.62600
O117        O  0.26525834  0.42557209  0.95132250    -0.75200
O118        O  0.25914672  0.50401955  0.02002735    -0.73900
Cu119      Cu  0.32023048  0.46574907  0.98992366     1.04600
Cu120      Cu  0.25998419  0.46443030  0.98584063     1.04300
C121        C  0.28695393  0.51870620  0.02921536     0.92400
C122        C  0.29463728  0.41307763  0.94449445     0.91500
C123        C  0.29316232  0.50608824  0.93509553     0.83700
C124        C  0.28848696  0.42347228  0.04060463     0.89900
O125        O  0.55841326  0.65684925  0.94994109    -0.73800
O126        O  0.48719746  0.65583698  0.02075922    -0.74800
O127        O  0.48590729  0.65399556  0.94955225    -0.63400
O128        O  0.55786111  0.65862570  0.02176571    -0.71800
O129        O  0.55705932  0.71486480  0.02088692    -0.71400
O130        O  0.48311805  0.71012129  0.94724048    -0.62600
O131        O  0.48393096  0.71202285  0.01999453    -0.75200
O132        O  0.55616764  0.71303464  0.94743847    -0.73900
Cu133      Cu  0.52252316  0.65453128  0.98533171     1.04600
Cu134      Cu  0.52009917  0.71464854  0.98371912     1.04300
C135        C  0.56893468  0.68485249  0.93770662     0.92400
C136        C  0.47438831  0.68340717  0.03180675     0.91500
C137        C  0.47211307  0.68094166  0.93790902     0.83700
C138        C  0.56817049  0.68706142  0.03357169     0.89900
O139        O  0.77590358  0.45252760  0.00623884    -0.73800
O140        O  0.78133706  0.52597222  0.93429763    -0.74800
O141        O  0.77705935  0.52483918  0.00806457    -0.63400
O142        O  0.78002158  0.45328267  0.93284133    -0.71800
O143        O  0.72349767  0.45541836  0.92950910    -0.71400
O144        O  0.72064429  0.52540173  0.00280081    -0.62600
O145        O  0.72471262  0.52554375  0.93083397    -0.75200
O146        O  0.71945899  0.45370486  0.00128098    -0.73900
Cu147      Cu  0.78073196  0.48917331  0.97055681     1.04600
Cu148      Cu  0.72028041  0.49009608  0.96615411     1.04300
C149        C  0.74650538  0.44140197  0.01472270     0.92400
C150        C  0.75352286  0.53636493  0.92059340     0.91500
C151        C  0.74794187  0.53632518  0.01711066     0.83700
C152        C  0.75187598  0.44365102  0.91902914     0.89900
O153        O  0.56811202  0.23637244  0.94027211    -0.73800
O154        O  0.49165909  0.23301795  0.01036633    -0.74800
O155        O  0.49424347  0.23232892  0.93663714    -0.63400
O156        O  0.56533454  0.23733107  0.01391792    -0.71800
O157        O  0.55850799  0.29307832  0.01493836    -0.71400
O158        O  0.49510457  0.28845673  0.93480465    -0.62600
O159        O  0.48695207  0.28884713  0.00634034    -0.75200
O160        O  0.56674447  0.29246244  0.94343630    -0.73900
Cu161      Cu  0.52995089  0.23260951  0.97531506     1.04600
Cu162      Cu  0.52671650  0.29246009  0.97485161     1.04300
C163        C  0.58004396  0.26531869  0.93166807     0.92400
C164        C  0.47675976  0.26070258  0.01865513     0.91500
C165        C  0.48399965  0.26017394  0.92327028     0.83700
C166        C  0.57256622  0.26639446  0.02684246     0.89900
O167        O  0.56351851  0.43984078  0.79040631    -0.73800
O168        O  0.49415505  0.51349060  0.79307223    -0.74800
O169        O  0.49187643  0.44258661  0.79327705    -0.63400
O170        O  0.56512316  0.51174009  0.79034913    -0.71800
O171        O  0.56251415  0.51347812  0.73363194    -0.71400
O172        O  0.49033472  0.43967041  0.73658323    -0.62600
O173        O  0.48920450  0.51224228  0.73651536    -0.75200
O174        O  0.56369635  0.44052827  0.73364638    -0.73900
Cu175      Cu  0.52894386  0.47680322  0.79356491     1.04600
Cu176      Cu  0.52648617  0.47638924  0.73292860     1.04300
C177        C  0.57452911  0.42832928  0.76198681     0.92400
C178        C  0.48034023  0.52436531  0.76556066     0.91500
C179        C  0.47896063  0.43056442  0.76575348     0.83700
C180        C  0.57429575  0.52480981  0.76206820     0.89900
C181        C  0.70221314  0.17187961  0.67635308     0.85600
C182        C  0.72273210  0.14584672  0.65519566    -0.54600
C183        C  0.70306670  0.12774846  0.63263334     0.08500
C184        C  0.66518367  0.13743837  0.63338588     0.19500
C185        C  0.68368870  0.19401007  0.64970279    -0.55400
C186        C  0.66483795  0.17567939  0.62685792     0.08600
C187        C  0.67384746  0.15106851  0.69343206    -0.54900
C188        C  0.65417915  0.13301301  0.67078764     0.09200
H189        H  0.75010611  0.14229196  0.65773947     0.13700
H190        H  0.64940242  0.12307704  0.61462820    -0.00500
H191        H  0.68658882  0.22133092  0.64805775     0.14000
H192        H  0.66965579  0.15084674  0.72085054     0.13800
C193        C  0.70688696  0.16722599  0.26482529     0.85600
C194        C  0.68026414  0.14277382  0.24860958    -0.54600
C195        C  0.66246547  0.12423348  0.27207497     0.08500
C196        C  0.67343774  0.13168345  0.30911733     0.19500
C197        C  0.68616916  0.18886982  0.29052840    -0.55400
C198        C  0.66881685  0.16994515  0.31401178     0.08600
C199        C  0.72981136  0.14435978  0.28715949    -0.54900
C200        C  0.71203116  0.12578104  0.31027335     0.09200
H201        H  0.67564608  0.14076861  0.22125939     0.13700
H202        H  0.65962900  0.11635986  0.32832040    -0.00500
H203        H  0.68582071  0.21637991  0.29044804     0.14000
H204        H  0.75733903  0.14274477  0.28465659     0.13800
C205        C  0.33602672  0.17931590  0.67010660     0.85600
C206        C  0.35475270  0.15193291  0.69117367    -0.54600
C207        C  0.37173156  0.12881093  0.67154077     0.08500
C208        C  0.36965189  0.13604933  0.63306776     0.19500
C209        C  0.36412567  0.19548448  0.64770815    -0.55400
C210        C  0.38199782  0.17261206  0.62843905     0.08600
C211        C  0.31340559  0.15912988  0.64440879    -0.54900
C212        C  0.33141192  0.13664864  0.62475878     0.09200
H213        H  0.35336979  0.15016615  0.71883938     0.13700
H214        H  0.38395401  0.11748194  0.61735418    -0.00500
H215        H  0.36948234  0.22247786  0.64736108     0.14000
H216        H  0.28601653  0.16254477  0.64188330     0.13800
C217        C  0.31799535  0.15692712  0.29563960     0.85600
C218        C  0.34370442  0.13813039  0.27233625    -0.54600
C219        C  0.36690580  0.11903165  0.29019944     0.08500
C220        C  0.36156898  0.12005840  0.32897615     0.19500
C221        C  0.30153077  0.12871709  0.31717341    -0.55400
C222        C  0.32450045  0.10919162  0.33452429     0.08600
C223        C  0.34018528  0.17727093  0.32121300    -0.54900
C224        C  0.36294933  0.15765016  0.33885342     0.09200
H225        H  0.34375333  0.14014999  0.24464884     0.13700
H226        H  0.38028591  0.10445931  0.34324916    -0.00500
H227        H  0.27417690  0.12451848  0.31838531     0.14000
H228        H  0.33777873  0.20440943  0.32521062     0.13800
O229        O  0.48552819  0.21932225  0.43620925    -0.73800
O230        O  0.56307636  0.22892073  0.50429755    -0.74800
O231        O  0.55883974  0.22526903  0.43066925    -0.63400
O232        O  0.49026560  0.22225912  0.50920905    -0.71800
O233        O  0.49790805  0.16670846  0.51234482    -0.71400
O234        O  0.56196892  0.16920749  0.43322488    -0.62600
O235        O  0.56891059  0.17293540  0.50399611    -0.75200
O236        O  0.48980039  0.16344845  0.44088094    -0.73900
Cu237      Cu  0.52427100  0.22606999  0.46989120     1.04600
Cu238      Cu  0.52977243  0.16630004  0.47250850     1.04300
C239        C  0.47463086  0.18957364  0.42905302     0.92400
C240        C  0.57822454  0.20211678  0.51461601     0.91500
C241        C  0.57170934  0.19722461  0.42028843     0.83700
C242        C  0.48371222  0.19372010  0.52333292     0.89900
C243        C  0.72615712  0.79561991  0.28275390     0.85600
C244        C  0.69824901  0.81445021  0.26171003    -0.54600
C245        C  0.67541681  0.83177689  0.28175849     0.08500
C246        C  0.68343696  0.82944554  0.32007690     0.19500
C247        C  0.74287954  0.82348616  0.30492696    -0.55400
C248        C  0.72039199  0.84148382  0.32402857     0.08600
C249        C  0.70606894  0.77340844  0.30838298    -0.54900
C250        C  0.68380955  0.79147916  0.32826073     0.09200
H251        H  0.69635727  0.81346829  0.23401577     0.13700
H252        H  0.66538554  0.84408148  0.33607644    -0.00500
H253        H  0.76998065  0.82928436  0.30461409     0.14000
H254        H  0.70972480  0.74626800  0.31097832     0.13800
C255        C  0.31645309  0.78063304  0.29790315     0.85600
C256        C  0.33713332  0.80607479  0.27597928    -0.54600
C257        C  0.36061823  0.82446420  0.29457512     0.08500
C258        C  0.36146629  0.81515679  0.33259175     0.19500
C259        C  0.34372288  0.75836004  0.31564227    -0.55400
C260        C  0.36778365  0.77682253  0.33313531     0.08600
C261        C  0.30131374  0.80228223  0.32698256    -0.54900
C262        C  0.32493314  0.82007547  0.34547461     0.09200
H263        H  0.33304011  0.80961018  0.24873628     0.13700
H264        H  0.38076842  0.82983850  0.34737535    -0.00500
H265        H  0.34476623  0.73095929  0.31328546     0.14000
H266        H  0.27429864  0.80279791  0.33291092     0.13800
C267        C  0.33893171  0.76773841  0.66922289     0.85600
C268        C  0.35994399  0.75162461  0.64006417    -0.54600
C269        C  0.37788319  0.77454036  0.62116757     0.08500
C270        C  0.37345606  0.81118923  0.63380722     0.19500
C271        C  0.36516323  0.78823240  0.69067174    -0.55400
C272        C  0.38341107  0.81090806  0.67178302     0.08600
C273        C  0.31650724  0.79473888  0.65145706    -0.54900
C274        C  0.33491613  0.81797833  0.63344352     0.09200
H275        H  0.36008166  0.72463297  0.63458361     0.13700
H276        H  0.38817584  0.82998154  0.61891174    -0.00500
H277        H  0.36893682  0.78500396  0.71800410     0.14000
H278        H  0.28898862  0.79616026  0.65417672     0.13800
C279        C  0.71732743  0.79987700  0.66196935     0.85600
C280        C  0.69248195  0.77737016  0.64112449    -0.54600
C281        C  0.66893698  0.79545703  0.62294223     0.08500
C282        C  0.67313063  0.83393209  0.62653214     0.19500
C283        C  0.73344973  0.82354799  0.63536558    -0.55400
C284        C  0.71016809  0.84124839  0.61649562     0.08600
C285        C  0.69449747  0.82308548  0.68393876    -0.54900
C286        C  0.67159774  0.84133686  0.66499070     0.09200
H287        H  0.69326390  0.74985525  0.64106423     0.13700
H288        H  0.65400937  0.84850384  0.61162931    -0.00500
H289        H  0.76076702  0.82554463  0.63141959     0.14000
H290        H  0.69723296  0.82584668  0.71147270     0.13800
O291        O  0.76406652  0.95652916  0.50843499    -0.73800
O292        O  0.76927759  0.03022040  0.43650025    -0.74800
O293        O  0.76453575  0.02900902  0.51085890    -0.63400
O294        O  0.76872829  0.95802843  0.43526772    -0.71800
O295        O  0.71229610  0.96078048  0.43093192    -0.71400
O296        O  0.70804748  0.02653014  0.50716129    -0.62600
O297        O  0.71259101  0.03041387  0.43487911    -0.75200
O298        O  0.70776327  0.95610159  0.50190144    -0.73900
Cu299      Cu  0.76887843  0.99364628  0.47301881     1.04600
Cu300      Cu  0.70845232  0.99370490  0.46871670     1.04300
C301        C  0.73476622  0.94422403  0.51568241     0.92400
C302        C  0.74117077  0.04021105  0.42308308     0.91500
C303        C  0.73505349  0.03753179  0.52185874     0.83700
C304        C  0.74072146  0.94883348  0.42089648     0.89900
O305        O  0.46932852  0.00461607  0.67233882    -0.73800
O306        O  0.55356740  0.94873168  0.66942329    -0.74800
O307        O  0.48358976  0.93449661  0.67195716    -0.63400
O308        O  0.53943887  0.01849376  0.66936719    -0.71800
O309        O  0.54631381  0.01712418  0.72569755    -0.71400
O310        O  0.48171841  0.93594610  0.72863131    -0.62600
O311        O  0.55437172  0.94466286  0.72602054    -0.75200
O312        O  0.47373777  0.00908359  0.72879101    -0.73900
Cu313      Cu  0.51129116  0.97654038  0.66900968     1.04600
Cu314      Cu  0.51402058  0.97671691  0.72950839     1.04300
C315        C  0.45898072  0.01699072  0.70061987     0.92400
C316        C  0.56706155  0.93731929  0.69686556     0.91500
C317        C  0.47375443  0.92172325  0.70014179     0.83700
C318        C  0.55253504  0.03076745  0.69669515     0.89900
O319        O  0.33164786  0.92971386  0.46593049    -0.73800
O320        O  0.33049554  0.01329358  0.52352321    -0.74800
O321        O  0.33053548  0.94262633  0.53673100    -0.63400
O322        O  0.33148035  0.99960220  0.45301877    -0.71800
O323        O  0.27500635  0.00344105  0.45385406    -0.71400
O324        O  0.27414142  0.93825317  0.53375356    -0.62600
O325        O  0.27403599  0.01157481  0.52673696    -0.75200
O326        O  0.27527064  0.93139759  0.46082140    -0.73900
Cu327      Cu  0.33284003  0.97132466  0.49500132     1.04600
Cu328      Cu  0.27244017  0.97115620  0.49390816     1.04300
C329        C  0.30397097  0.91795913  0.45317575     0.92400
C330        C  0.30250300  0.02594139  0.53411177     0.91500
C331        C  0.30263296  0.93008666  0.54763583     0.83700
C332        C  0.30366485  0.01092842  0.44033608     0.89900
O333        O  0.54938889  0.00597284  0.22767152    -0.73800
O334        O  0.47610503  0.93174399  0.23279894    -0.74800
O335        O  0.47590716  0.00534265  0.23034283    -0.63400
O336        O  0.55047729  0.93311008  0.22954178    -0.71800
O337        O  0.55052103  0.93365828  0.28626728    -0.71400
O338        O  0.48103997  0.00783522  0.28683106    -0.62600
O339        O  0.47799395  0.93634413  0.28929302    -0.75200
O340        O  0.55202203  0.00571220  0.28435502    -0.73900
Cu341      Cu  0.51285867  0.96879523  0.22792866     1.04600
Cu342      Cu  0.51551602  0.97074536  0.28843702     1.04300
C343        C  0.56159577  0.01786730  0.25577197     0.92400
C344        C  0.46484834  0.92328889  0.26231090     0.91500
C345        C  0.46789409  0.01883850  0.25903386     0.83700
C346        C  0.56219775  0.92215008  0.25807985     0.89900
O347        O  0.48573691  0.78185891  0.49933591    -0.73800
O348        O  0.56548898  0.78487879  0.43699861    -0.74800
O349        O  0.49403796  0.77973472  0.42801278    -0.63400
O350        O  0.55662056  0.78622667  0.50827970    -0.71800
O351        O  0.56398198  0.73045033  0.50779796    -0.71400
O352        O  0.49364474  0.72361999  0.43167418    -0.62600
O353        O  0.56764090  0.72880315  0.43430458    -0.75200
O354        O  0.49071702  0.72623536  0.50504029    -0.73900
Cu355      Cu  0.52537831  0.78492096  0.46799085     1.04600
Cu356      Cu  0.52914766  0.72509299  0.46964866     1.04300
C357        C  0.47593308  0.75417788  0.51288078     0.92400
C358        C  0.57937040  0.75788711  0.42565558     0.91500
C359        C  0.48288795  0.75096372  0.41788069     0.83700
C360        C  0.57042026  0.75963180  0.52063740     0.89900
C361        C  0.83741155  0.29973833  0.67670606     0.85600
C362        C  0.86396474  0.28015528  0.65521029    -0.54600
C363        C  0.88260137  0.30050693  0.63402097     0.08500
C364        C  0.87272788  0.33802617  0.63627782     0.19500
C365        C  0.85810493  0.32737418  0.69544885    -0.55400
C366        C  0.87621435  0.34768939  0.67411345     0.08600
C367        C  0.81550194  0.31933771  0.65010744    -0.54900
C368        C  0.83444892  0.33911134  0.62865555     0.09200
H369        H  0.86766520  0.25293856  0.65677713     0.13700
H370        H  0.88766346  0.35457744  0.61906209    -0.00500
H371        H  0.85770939  0.33113594  0.72299094     0.14000
H372        H  0.78791743  0.31735586  0.64821425     0.13800
C373        C  0.82356254  0.28902308  0.28900335     0.85600
C374        C  0.84640855  0.31262507  0.26731114    -0.54600
C375        C  0.86900617  0.33134248  0.28652172     0.08500
C376        C  0.86684908  0.32461255  0.32497170     0.19500
C377        C  0.84916399  0.26728262  0.31034506    -0.55400
C378        C  0.87228041  0.28634706  0.32900354     0.08600
C379        C  0.80698596  0.31284023  0.31556493    -0.54900
C380        C  0.82967027  0.33132639  0.33445221     0.09200
H381        H  0.84431105  0.31486492  0.23971004     0.13700
H382        H  0.88507260  0.34022932  0.34012918    -0.00500
H383        H  0.84926236  0.23978518  0.31017147     0.14000
H384        H  0.77961189  0.31486788  0.31916330     0.13800
C385        C  0.83446681  0.66481915  0.27091004     0.85600
C386        C  0.86008623  0.68651384  0.29194332    -0.54600
C387        C  0.87878494  0.66818350  0.31507269     0.08500
C388        C  0.86945445  0.63045519  0.31554683     0.19500
C389        C  0.85646164  0.63621500  0.25523620    -0.55400
C390        C  0.87453689  0.61797706  0.27880865     0.08600
C391        C  0.81217919  0.64665411  0.29800674    -0.54900
C392        C  0.83093738  0.62901506  0.32181793     0.09200
H393        H  0.86383207  0.71347363  0.28800162     0.13700
H394        H  0.88436136  0.61583552  0.33464952    -0.00500
H395        H  0.85736807  0.63072614  0.22801487     0.14000
H396        H  0.78453761  0.64823991  0.29863659     0.13800
C397        C  0.83168110  0.67799330  0.67506333     0.85600
C398        C  0.86168026  0.65968785  0.69237581    -0.54600
C399        C  0.88097384  0.64117403  0.67054116     0.08500
C400        C  0.86817834  0.64212560  0.63345232     0.19500
C401        C  0.84809879  0.69905241  0.64614353    -0.55400
C402        C  0.86677132  0.67971742  0.62386184     0.08600
C403        C  0.81127473  0.64978120  0.65629415    -0.54900
C404        C  0.83080942  0.63086231  0.63452557     0.09200
H405        H  0.86749116  0.66162413  0.71952771     0.13700
H406        H  0.88390852  0.62661540  0.61588432    -0.00500
H407        H  0.84453977  0.72616162  0.64315139     0.14000
H408        H  0.78422990  0.64521611  0.66000805     0.13800
O409        O  0.98333898  0.72928461  0.43419519    -0.73800
O410        O  0.04787171  0.73069932  0.51687631    -0.74800
O411        O  0.05632711  0.72922475  0.44427957    -0.63400
O412        O  0.97470165  0.73149513  0.50753236    -0.71800
O413        O  0.97238402  0.67536628  0.50527035    -0.71400
O414        O  0.05725182  0.67328307  0.44979420    -0.62600
O415        O  0.04317764  0.67480617  0.51979766    -0.75200
O416        O  0.98685473  0.67322363  0.43477366    -0.73900
Cu417      Cu  0.01543777  0.73234411  0.47568859     1.04600
Cu418      Cu  0.01477053  0.67240640  0.47742295     1.04300
C419        C  0.97587167  0.70040668  0.42099069     0.92400
C420        C  0.05581144  0.70252839  0.53109194     0.91500
C421        C  0.07030099  0.70056210  0.43824349     0.83700
C422        C  0.96054393  0.70356237  0.51603743     0.89900
O423        O  0.05936989  0.45310008  0.72888502    -0.73800
O424        O  0.99458702  0.53293825  0.72681455    -0.74800
O425        O  0.98699734  0.46088468  0.72823514    -0.63400
O426        O  0.06690474  0.52565146  0.72770948    -0.71800
O427        O  0.06895546  0.52005849  0.67123846    -0.71400
O428        O  0.98505568  0.46368027  0.67154040    -0.62600
O429        O  0.99886089  0.53332395  0.67024172    -0.75200
O430        O  0.05522379  0.44990633  0.67232561    -0.73900
Cu431      Cu  0.02701385  0.49319833  0.73009651     1.04600
Cu432      Cu  0.02707530  0.49171057  0.66950373     1.04300
C433        C  0.06654447  0.43831751  0.70063668     0.92400
C434        C  0.98707393  0.54594653  0.69779410     0.91500
C435        C  0.97317275  0.45262334  0.69966075     0.83700
C436        C  0.08058623  0.53278714  0.69903115     0.89900
O437        O  0.99344125  0.50606608  0.23766327    -0.73800
O438        O  0.06790417  0.43362967  0.24438827    -0.74800
O439        O  0.99386250  0.43334039  0.23757266    -0.63400
O440        O  0.06701750  0.50688350  0.24425639    -0.71800
O441        O  0.05997114  0.50791612  0.30048320    -0.71400
O442        O  0.99082126  0.43394689  0.29422994    -0.62600
O443        O  0.06362196  0.43634800  0.30082153    -0.75200
O444        O  0.98850594  0.50421728  0.29408921    -0.73900
Cu445      Cu  0.03086731  0.46985568  0.23881805     1.04600
Cu446      Cu  0.02576246  0.47044659  0.29915788     1.04300
C447        C  0.97868286  0.51570088  0.26519399     0.92400
C448        C  0.07799715  0.42433325  0.27417234     0.91500
C449        C  0.97985823  0.42335556  0.26526062     0.83700
C450        C  0.07411188  0.51958095  0.27367705     0.89900
O451        O  0.06206614  0.28128370  0.44056332    -0.73800
O452        O  0.99363272  0.29361222  0.51421279    -0.74800
O453        O  0.06532998  0.28737741  0.51245158    -0.63400
O454        O  0.99098343  0.28756748  0.44126688    -0.71800
O455        O  0.98591298  0.23172813  0.44441993    -0.71400
O456        O  0.05961107  0.23202187  0.51986317    -0.62600
O457        O  0.98654444  0.23799528  0.51818447    -0.75200
O458        O  0.05967496  0.22536087  0.44613157    -0.73900
Cu459      Cu  0.02805943  0.28921139  0.47701083     1.04600
Cu460      Cu  0.02269674  0.22966026  0.48229595     1.04300
C461        C  0.07190457  0.25175384  0.43174264     0.92400
C462        C  0.97951408  0.26805954  0.52824803     0.91500
C463        C  0.07425354  0.26013494  0.52764265     0.83700
C464        C  0.97727239  0.25998850  0.43074277     0.89900
O465        O  0.77834349  0.45045458  0.51531460    -0.73800
O466        O  0.77661417  0.52317241  0.44139414    -0.74800
O467        O  0.77815647  0.45011568  0.44182471    -0.63400
O468        O  0.77716619  0.52326677  0.51570274    -0.71800
O469        O  0.83372934  0.52122829  0.51681588    -0.71400
O470        O  0.83473334  0.45295920  0.44182714    -0.62600
O471        O  0.83311182  0.52525877  0.44427629    -0.75200
O472        O  0.83490422  0.45000643  0.51296899    -0.73900
Cu473      Cu  0.77543119  0.48685941  0.47845500     1.04600
Cu474      Cu  0.83590992  0.48760542  0.47884281     1.04300
C475        C  0.80710541  0.43828029  0.52500362     0.92400
C476        C  0.80494018  0.53591928  0.43157108     0.91500
C477        C  0.80704098  0.43942609  0.43114847     0.83700
C478        C  0.80575719  0.53254166  0.52882483     0.89900
C479        C  0.20575376  0.28610204  0.69021003     0.85600
C480        C  0.22907808  0.31091448  0.67102905    -0.54600
C481        C  0.21196355  0.33106172  0.64851365     0.08500
C482        C  0.17350317  0.32419420  0.64663417     0.19500
C483        C  0.17808674  0.30876648  0.70646481    -0.55400
C484        C  0.16101522  0.32851265  0.68339947     0.08600
C485        C  0.18649189  0.26594386  0.66178058    -0.54900
C486        C  0.16973873  0.28622751  0.63859920     0.09200
H487        H  0.25629526  0.31332958  0.67593177     0.13700
H488        H  0.16008021  0.34097636  0.62821898    -0.00500
H489        H  0.17251334  0.30912266  0.73362613     0.14000
H490        H  0.18643167  0.23847852  0.66010160     0.13800
C491        C  0.22241009  0.66197613  0.30422066     0.85600
C492        C  0.23967029  0.63592388  0.32800692    -0.54600
C493        C  0.21733344  0.61827617  0.34774268     0.08500
C494        C  0.18010090  0.62901983  0.34243998     0.19500
C495        C  0.19565242  0.64113093  0.28380424    -0.55400
C496        C  0.17321984  0.62393860  0.30408556     0.08600
C497        C  0.20150375  0.68502405  0.32820727    -0.54900
C498        C  0.17946123  0.66744939  0.34846931     0.09200
H499        H  0.26691410  0.63095068  0.32812506     0.13700
H500        H  0.16204335  0.61517620  0.35899852    -0.00500
H501        H  0.19483211  0.63991970  0.25606049     0.14000
H502        H  0.20429885  0.71237922  0.32939786     0.13800
C503        C  0.21344303  0.68697215  0.66850762     0.85600
C504        C  0.23540606  0.66629538  0.64320115    -0.54600
C505        C  0.21682709  0.64417151  0.62351393     0.08500
C506        C  0.17856862  0.64459831  0.63119934     0.19500
C507        C  0.18554992  0.70390075  0.64612189    -0.55400
C508        C  0.16673098  0.68142363  0.62695189     0.08600
C509        C  0.19399172  0.66013174  0.68941812    -0.54900
C510        C  0.17620408  0.63755981  0.66959507     0.09200
H511        H  0.26294633  0.66864415  0.64143046     0.13700
H512        H  0.16396481  0.62631532  0.61521620    -0.00500
H513        H  0.18020417  0.73087703  0.64673455     0.14000
H514        H  0.19491764  0.65868798  0.71714646     0.13800
C515        C  0.22887354  0.28222388  0.30271341     0.85600
C516        C  0.20370913  0.25904210  0.32184499    -0.54600
C517        C  0.18118046  0.27647756  0.34166935     0.08500
C518        C  0.18648240  0.31490339  0.34161861     0.19500
C519        C  0.20595159  0.30789046  0.28319895    -0.55400
C520        C  0.18391696  0.32543815  0.30391428     0.08600
C521        C  0.24626393  0.30365475  0.33129144    -0.54900
C522        C  0.22390322  0.32048559  0.35207285     0.09200
H523        H  0.20287806  0.23167939  0.31888012     0.13700
H524        H  0.16794350  0.32821480  0.35820031    -0.00500
H525        H  0.20766874  0.31222928  0.25586309     0.14000
H526        H  0.27371071  0.30475423  0.33510143     0.13800
O527        O  0.21773988  0.51540974  0.52870271    -0.73800
O528        O  0.21826073  0.43094926  0.47171421    -0.74800
O529        O  0.21913660  0.44526072  0.54252256    -0.63400
O530        O  0.21642282  0.50107849  0.45878514    -0.71800
O531        O  0.27275757  0.50663513  0.45986488    -0.71400
O532        O  0.27561532  0.44190461  0.54041612    -0.62600
O533        O  0.27450918  0.43412504  0.46700041    -0.75200
O534        O  0.27426023  0.51489899  0.53243251    -0.73900
Cu535      Cu  0.21612004  0.47302863  0.50055511     1.04600
Cu536      Cu  0.27649062  0.47431927  0.49999620     1.04300
C537        C  0.24558708  0.52880995  0.53926982     0.92400
C538        C  0.24612982  0.41978636  0.45920745     0.91500
C539        C  0.24727691  0.43399055  0.55439994     0.83700
C540        C  0.24366021  0.51382131  0.44667089     0.89900
C541        C  0.27238266  0.22138893  0.23406015    -0.03400
C542        C  0.77191810  0.23082364  0.22238648    -0.03400
C543        C  0.26518028  0.71974165  0.23500636    -0.03400
C544        C  0.26914068  0.22104202  0.73403667    -0.03400
C545        C  0.77213043  0.23303621  0.71328487    -0.03400
C546        C  0.77397858  0.73040940  0.22261311    -0.03400
C547        C  0.27895835  0.72429941  0.73677760    -0.03400
C548        C  0.21038056  0.17230893  0.16964442     0.85600
C549        C  0.18258015  0.18814044  0.14683211    -0.54600
C550        C  0.16383453  0.16529633  0.12850056     0.08500
C551        C  0.17511911  0.12852297  0.13418744     0.19500
C552        C  0.19090053  0.14615482  0.19179716    -0.55400
C553        C  0.17274499  0.12287485  0.17282114     0.08600
C554        C  0.23219734  0.15044742  0.14488702    -0.54900
C555        C  0.21330838  0.12749407  0.12615059     0.09200
H556        H  0.17747073  0.21517265  0.14618474     0.13700
H557        H  0.16021569  0.10977007  0.11905489    -0.00500
H558        H  0.19177689  0.14589454  0.21954722     0.14000
H559        H  0.25961478  0.15316105  0.14226556     0.13800
C560        C  0.22318520  0.15767744  0.79637833     0.85600
C561        C  0.19760215  0.13905147  0.77287560    -0.54600
C562        C  0.17367511  0.12121865  0.79035152     0.08500
C563        C  0.17834752  0.12235758  0.82929250     0.19500
C564        C  0.20095582  0.17902744  0.82105959    -0.55400
C565        C  0.17766372  0.16008138  0.83873095     0.08600
C566        C  0.23878142  0.12970650  0.81900613    -0.54900
C567        C  0.21519596  0.11092490  0.83617990     0.09200
H568        H  0.19761274  0.14086786  0.74515536     0.13700
H569        H  0.15885649  0.10735078  0.84300351    -0.00500
H570        H  0.20415865  0.20610243  0.82490326     0.14000
H571        H  0.26601440  0.12503611  0.82090221     0.13800
C572        C  0.82843177  0.16515465  0.17047983     0.85600
C573        C  0.84799088  0.18715169  0.14432624    -0.54600
C574        C  0.86543497  0.16851070  0.12050577     0.08500
C575        C  0.86256153  0.13013226  0.12590347     0.19500
C576        C  0.80588292  0.14105372  0.14832786    -0.55400
C577        C  0.82427668  0.12242864  0.12511787     0.08600
C578        C  0.85596661  0.14192429  0.18618860    -0.54900
C579        C  0.87405858  0.12378698  0.16285609     0.09200
H580        H  0.84747986  0.21465824  0.14432223     0.13700
H581        H  0.87698616  0.11498428  0.10694427    -0.00500
H582        H  0.77851760  0.13832155  0.15144237     0.14000
H583        H  0.86115480  0.14050205  0.21347638     0.13800
C584        C  0.20395550  0.76958109  0.17151941     0.85600
C585        C  0.18246242  0.79451642  0.19324041    -0.54600
C586        C  0.16750721  0.81976623  0.17436208     0.08500
C587        C  0.17534909  0.81759527  0.13605107     0.19500
C588        C  0.17882063  0.75663760  0.14378468    -0.55400
C589        C  0.16395110  0.78187890  0.12485088     0.08600
C590        C  0.22944146  0.79199165  0.15183258    -0.54900
C591        C  0.21424726  0.81729784  0.13369920     0.09200
H592        H  0.17945671  0.79236478  0.22072545     0.13700
H593        H  0.16335274  0.83836073  0.12118518    -0.00500
H594        H  0.17403087  0.72992902  0.13905827     0.14000
H595        H  0.25687494  0.78813761  0.15212583     0.13800
C596        C  0.81592333  0.79580547  0.15789029     0.85600
C597        C  0.79816871  0.81782636  0.13018895    -0.54600
C598        C  0.82028491  0.83631897  0.11081641     0.08500
C599        C  0.85759528  0.83179338  0.12152487     0.19500
C600        C  0.84233922  0.77449747  0.13781805    -0.55400
C601        C  0.86450262  0.79375413  0.11916325     0.08600
C602        C  0.83764219  0.82123913  0.17917012    -0.54900
C603        C  0.85938308  0.84030114  0.15973444     0.09200
H604        H  0.77079221  0.81793736  0.12568264     0.13700
H605        H  0.87540298  0.84703001  0.10590535    -0.00500
H606        H  0.84373370  0.74704223  0.13886191     0.14000
H607        H  0.83586431  0.82389387  0.20674931     0.13800
O608        O  0.05566915  0.93582763  0.22504968    -0.73800
O609        O  0.98620417  0.01203730  0.21819494    -0.74800
O610        O  0.98239203  0.93973411  0.21889279    -0.63400
O611        O  0.05943958  0.00920049  0.22449240    -0.71800
O612        O  0.06476144  0.00590118  0.16812977    -0.71400
O613        O  0.98604201  0.94143812  0.16232358    -0.62600
O614        O  0.99322323  0.01225438  0.16195427    -0.75200
O615        O  0.05855490  0.93509729  0.16835909    -0.73900
Cu616      Cu  0.02082632  0.97416026  0.22379088     1.04600
Cu617      Cu  0.02577405  0.97352229  0.16339091     1.04300
C618        C  0.06825081  0.92384065  0.19741187     0.92400
C619        C  0.97898189  0.02414102  0.18867953     0.91500
C620        C  0.97131122  0.93083636  0.18931529     0.83700
C621        C  0.07436820  0.01816311  0.19690404     0.89900
C622        C  0.21481058  0.78785600  0.78267979     0.85600
C623        C  0.19506052  0.81733490  0.76581352    -0.54600
C624        C  0.17701458  0.83685526  0.78817100     0.08500
C625        C  0.18031412  0.82484858  0.82528068     0.19500
C626        C  0.23708284  0.80503960  0.81063574    -0.55400
C627        C  0.21865781  0.82399536  0.83331278     0.08600
C628        C  0.18716810  0.76787820  0.80249997    -0.54900
C629        C  0.16878369  0.78777548  0.82458108     0.09200
H630        H  0.19532995  0.82221159  0.73850979     0.13700
H631        H  0.16565755  0.84036317  0.84374427    -0.00500
H632        H  0.26452561  0.80180513  0.81273697     0.14000
H633        H  0.18175803  0.74119462  0.79831341     0.13800
O634        O  0.27599282  0.93157180  0.02669071    -0.73800
O635        O  0.26896209  0.00183974  0.95153428    -0.74800
O636        O  0.27088579  0.00487035  0.02492826    -0.63400
O637        O  0.27427954  0.92934196  0.95320423    -0.71800
O638        O  0.21818465  0.92374417  0.95783224    -0.71400
O639        O  0.21437177  0.00248619  0.02263381    -0.62600
O640        O  0.21282101  0.99462700  0.95095839    -0.75200
O641        O  0.21939369  0.93065224  0.02937924    -0.73900
Cu642      Cu  0.27467067  0.96703940  0.98917582     1.04600
Cu643      Cu  0.21438831  0.96275069  0.99036349     1.04300
C644        C  0.24843776  0.91999501  0.03955451     0.92400
C645        C  0.23950589  0.00868756  0.93898522     0.91500
C646        C  0.24172623  0.01645844  0.03383603     0.83700
C647        C  0.24641515  0.91446647  0.94463718     0.89900
C648        C  0.83925602  0.17828491  0.76706953     0.85600
C649        C  0.86701147  0.19571155  0.78906189    -0.54600
C650        C  0.88490481  0.17396466  0.80943620     0.08500
C651        C  0.87316272  0.13703996  0.80626797     0.19500
C652        C  0.85805360  0.15004594  0.74756169    -0.55400
C653        C  0.87536812  0.12823137  0.76822677     0.08600
C654        C  0.81669409  0.15913944  0.79362274    -0.54900
C655        C  0.83509762  0.13778816  0.81441409     0.09200
H656        H  0.87211033  0.22276899  0.78837941     0.13700
H657        H  0.88774907  0.11928241  0.82275025    -0.00500
H658        H  0.85733546  0.14733738  0.71989995     0.14000
H659        H  0.78950457  0.16266120  0.79690194     0.13800
O660        O  0.05934134  0.22000484  0.94318352    -0.73800
O661        O  0.97841989  0.22417859  0.00846103    -0.74800
O662        O  0.05131782  0.22033408  0.01625447    -0.63400
O663        O  0.98659210  0.22361111  0.93486150    -0.71800
O664        O  0.98763400  0.16739458  0.93360193    -0.71400
O665        O  0.04443163  0.16455386  0.01743845    -0.62600
O666        O  0.97395200  0.16828818  0.00426758    -0.75200
O667        O  0.05784695  0.16398133  0.94704841    -0.73900
Cu668      Cu  0.01893757  0.22423160  0.97572992     1.04600
Cu669      Cu  0.01578288  0.16431925  0.97560910     1.04300
C670        C  0.07165631  0.19090905  0.93550790     0.92400
C671        C  0.96331897  0.19647715  0.01626448     0.91500
C672        C  0.05780450  0.19148309  0.02968157     0.83700
C673        C  0.97806048  0.19548903  0.92076037     0.89900
C674        C  0.82932665  0.79437765  0.76558408     0.85600
C675        C  0.85959626  0.81224653  0.74850978    -0.54600
C676        C  0.87918484  0.83060434  0.77058919     0.08500
C677        C  0.86638895  0.83022453  0.80738949     0.19500
C678        C  0.84578384  0.77345272  0.79497588    -0.55400
C679        C  0.86486705  0.79280347  0.81726269     0.08600
C680        C  0.80940007  0.82317077  0.78380036    -0.54900
C681        C  0.82933141  0.84226952  0.80553638     0.09200
H682        H  0.86539078  0.81009697  0.72145544     0.13700
H683        H  0.88236474  0.84561977  0.82505828    -0.00500
H684        H  0.84251172  0.74629304  0.79785700     0.14000
H685        H  0.78253297  0.82830548  0.77929127     0.13800
O686        O  0.05011035  0.73996667  0.00654484    -0.73800
O687        O  0.97596822  0.74032777  0.93310917    -0.74800
O688        O  0.04966826  0.73946737  0.93292424    -0.63400
O689        O  0.97698239  0.74044262  0.00654164    -0.71800
O690        O  0.98141034  0.79645391  0.00908735    -0.71400
O691        O  0.04669426  0.79551755  0.93066095    -0.62600
O692        O  0.97446950  0.79638016  0.93697007    -0.75200
O693        O  0.05307651  0.79595761  0.00292611    -0.73900
Cu694      Cu  0.01317966  0.73797532  0.96971595     1.04600
Cu695      Cu  0.01393696  0.79793129  0.96983778     1.04300
C696        C  0.06345596  0.76816455  0.01598192     0.92400
C697        C  0.96284871  0.76873046  0.92433592     0.91500
C698        C  0.05921401  0.76758190  0.91984938     0.83700
C699        C  0.96855663  0.76879202  0.02000345     0.89900
O700        O  0.77378368  0.94848918  0.99390811    -0.73800
O701        O  0.77721588  0.02609000  0.92551557    -0.74800
O702        O  0.77677790  0.95341374  0.92019563    -0.63400
O703        O  0.77389695  0.02103688  0.99922795    -0.71800
O704        O  0.83012815  0.01662160  0.00414069    -0.71400
O705        O  0.83323825  0.95680174  0.92079666    -0.62600
O706        O  0.83341394  0.02780800  0.93228124    -0.75200
O707        O  0.83028250  0.94592923  0.99256924    -0.73900
Cu708      Cu  0.77333649  0.98727721  0.95956895     1.04600
Cu709      Cu  0.83362589  0.98680363  0.96250697     1.04300
C710        C  0.80182547  0.93483363  0.00369202     0.92400
C711        C  0.80613465  0.03946710  0.91861683     0.91500
C712        C  0.80566271  0.94513221  0.90756496     0.83700
C713        C  0.80176575  0.02844419  0.01485689     0.89900
O714        O  0.98661544  0.01327772  0.71902694    -0.73800
O715        O  0.06495157  0.94651007  0.72850090    -0.74800
O716        O  0.99273024  0.94101910  0.72231190    -0.63400
O717        O  0.05937690  0.01853133  0.72448274    -0.71800
O718        O  0.05112026  0.02322079  0.78044490    -0.71400
O719        O  0.99251121  0.94151124  0.77911806    -0.62600
O720        O  0.06268416  0.95307135  0.78481301    -0.75200
O721        O  0.98059535  0.01141623  0.77539848    -0.73900
Cu722      Cu  0.02603124  0.97978950  0.72140145     1.04600
Cu723      Cu  0.02154649  0.98245354  0.78177218     1.04300
C724        C  0.97091362  0.02222641  0.74620546     0.92400
C725        C  0.07631438  0.93967317  0.75849877     0.91500
C726        C  0.98307067  0.92843940  0.75069631     0.83700
C727        C  0.06543323  0.03321684  0.75306656     0.89900
C728        C  0.76226686  0.73315934  0.72074205    -0.03400
C729        C  0.78312409  0.89655183  0.87128449    -0.14200
C730        C  0.80786091  0.92179858  0.87767215     0.07900
C731        C  0.83640319  0.92342090  0.85628967    -0.14200
C732        C  0.84131200  0.89925030  0.83065409    -0.14200
C733        C  0.81834220  0.87214423  0.82621679     0.07900
C734        C  0.78843803  0.87173582  0.84584529    -0.14200
H735        H  0.76074236  0.89482784  0.88723210     0.11900
H736        H  0.85554758  0.94296635  0.85998939     0.11900
H737        H  0.86412866  0.90088081  0.81529831     0.11900
H738        H  0.77034208  0.85113361  0.84305229     0.11900
C739        C  0.88580657  0.80196634  0.87676993    -0.14200
C740        C  0.88431280  0.78081761  0.84777736     0.07900
C741        C  0.90610647  0.75258476  0.84630797    -0.14200
C742        C  0.93067894  0.74724330  0.87222654    -0.14200
C743        C  0.93401957  0.77039032  0.89956370     0.07900
C744        C  0.91060484  0.79713184  0.90203085    -0.14200
H745        H  0.86888789  0.82354379  0.87900904     0.11900
H746        H  0.90569364  0.73604034  0.82412979     0.11900
H747        H  0.94835015  0.72633958  0.86981492     0.11900
H748        H  0.91208697  0.81499412  0.92311608     0.11900
C749        C  0.93664638  0.85299926  0.78436721    -0.14200
C750        C  0.90962178  0.85010077  0.76085418     0.07900
C751        C  0.91007829  0.86934821  0.73071523    -0.14200
C752        C  0.93561899  0.89361159  0.72592735    -0.14200
C753        C  0.96047372  0.89888542  0.75143369     0.07900
C754        C  0.96163273  0.87747195  0.77991769    -0.14200
H755        H  0.93756704  0.83748640  0.80715235     0.11900
H756        H  0.88951481  0.86738854  0.71216554     0.11900
H757        H  0.93452199  0.90978753  0.70362752     0.11900
H758        H  0.98113731  0.88056704  0.79948055     0.11900
C759        C  0.80883829  0.77437459  0.73921418    -0.17300
C760        C  0.78301738  0.75361710  0.74731750    -0.32500
H761        H  0.81605315  0.77643272  0.71255919     0.11700
H762        H  0.77746460  0.75051640  0.77432321     0.12300
C763        C  0.90872986  0.21280021  0.85504708    -0.14200
C764        C  0.91206580  0.18405144  0.83393809     0.07900
C765        C  0.93963823  0.16205890  0.83920426    -0.14200
C766        C  0.96184077  0.16697912  0.86665428    -0.14200
C767        C  0.95732304  0.19431658  0.88921111     0.07900
C768        C  0.93142611  0.21801070  0.88253374    -0.14200
H769        H  0.88751558  0.23002110  0.85156327     0.11900
H770        H  0.94334025  0.14021475  0.82278933     0.11900
H771        H  0.98205880  0.14871690  0.87086129     0.11900
H772        H  0.92753237  0.23929373  0.89963366     0.11900
C773        C  0.79399662  0.09544080  0.84014576    -0.14200
C774        C  0.82191665  0.11760563  0.84367113     0.07900
C775        C  0.84153711  0.11639230  0.87390704    -0.14200
C776        C  0.83533771  0.09187521  0.89873262    -0.14200
C777        C  0.80884596  0.06827681  0.89442578     0.07900
C778        C  0.78737655  0.07102289  0.86548666    -0.14200
H779        H  0.77871073  0.09557281  0.81694062     0.11900
H780        H  0.86294493  0.13344299  0.87758322     0.11900
H781        H  0.85202898  0.09071000  0.92093388     0.11900
H782        H  0.76684187  0.05304899  0.86148588     0.11900
C783        C  0.89218349  0.06803258  0.77421676    -0.14200
C784        C  0.89490670  0.09854323  0.75622320     0.07900
C785        C  0.91948771  0.10154983  0.73043850    -0.14200
C786        C  0.94291623  0.07526721  0.72483883    -0.14200
C787        C  0.94192956  0.04595944  0.74509440     0.07900
C788        C  0.91551996  0.04201883  0.76879617    -0.14200
H789        H  0.87303497  0.06501229  0.79387791     0.11900
H790        H  0.92211092  0.12502336  0.71645289     0.11900
H791        H  0.96329414  0.07892212  0.70663863     0.11900
H792        H  0.91408094  0.01951335  0.78446109     0.11900
C793        C  0.21417595  0.83920569  0.89467809    -0.14200
C794        C  0.23244707  0.84168016  0.86406809     0.07900
C795        C  0.25960846  0.86490005  0.86217764    -0.14200
C796        C  0.26629040  0.88729610  0.88959211    -0.14200
C797        C  0.24565934  0.88673810  0.91893496     0.07900
C798        C  0.22056219  0.86154546  0.92165971    -0.14200
H799        H  0.19349512  0.82116535  0.89699826     0.11900
H800        H  0.27395370  0.86736875  0.83872852     0.11900
H801        H  0.28578136  0.90651961  0.88685109     0.11900
H802        H  0.20463278  0.86017093  0.94416925     0.11900
C803        C  0.13618158  0.86504015  0.74678166    -0.14200
C804        C  0.15429590  0.86542870  0.77802825     0.07900
C805        C  0.14852325  0.89216358  0.80109145    -0.14200
C806        C  0.12388884  0.91671402  0.79411176    -0.14200
C807        C  0.10483542  0.91562855  0.76356821     0.07900
C808        C  0.11178586  0.89005255  0.73952383    -0.14200
H809        H  0.13973343  0.84462905  0.72855520     0.11900
H810        H  0.16269691  0.89398741  0.82487120     0.11900
H811        H  0.11941718  0.93640189  0.81295663     0.11900
H812        H  0.09732728  0.88851358  0.71587669     0.11900
C813        C  0.11000087  0.79925218  0.84482004    -0.14200
C814        C  0.13827648  0.77738406  0.84449575     0.07900
C815        C  0.13865915  0.74957975  0.86686525    -0.14200
C816        C  0.11202299  0.74507068  0.89048626    -0.14200
C817        C  0.08498993  0.76855431  0.89220781     0.07900
C818        C  0.08393292  0.79510712  0.86850276    -0.14200
H819        H  0.10876651  0.82065345  0.82758848     0.11900
H820        H  0.16033853  0.73258732  0.86740001     0.11900
H821        H  0.11349756  0.72440722  0.90856623     0.11900
H822        H  0.06326405  0.81331392  0.86884568     0.11900
C823        C  0.90565595  0.86036217  0.20073872    -0.14200
C824        C  0.88407298  0.86625008  0.17244909     0.07900
C825        C  0.88973080  0.89511603  0.15235414    -0.14200
C826        C  0.91775666  0.91608453  0.15847305    -0.14200
C827        C  0.94044939  0.90938518  0.18550095     0.07900
C828        C  0.93355212  0.88203995  0.20740922    -0.14200
H829        H  0.90208203  0.83814312  0.21643896     0.11900
H830        H  0.87312519  0.90079469  0.13083324     0.11900
H831        H  0.92198803  0.93741788  0.14167213     0.11900
H832        H  0.95064811  0.87648202  0.22857227     0.11900
C833        C  0.83225750  0.85805419  0.05233747    -0.14200
C834        C  0.81088919  0.85796908  0.08103709     0.07900
C835        C  0.78357278  0.88103697  0.08215844    -0.14200
C836        C  0.77918121  0.90507194  0.05594546    -0.14200
C837        C  0.80219912  0.90647838  0.02850320     0.07900
C838        C  0.82819494  0.88215288  0.02661878    -0.14200
H839        H  0.85302100  0.84005934  0.05027885     0.11900
H840        H  0.76685291  0.88165846  0.10404724     0.11900
H841        H  0.75901787  0.92371900  0.05810027     0.11900
H842        H  0.84602527  0.88233239  0.00559258     0.11900
C843        C  0.94891567  0.79453596  0.07438628    -0.14200
C844        C  0.94404396  0.77028349  0.04853266     0.07900
C845        C  0.91466876  0.74973822  0.04916862    -0.14200
C846        C  0.88932430  0.75534124  0.07386847    -0.14200
C847        C  0.89345306  0.78118460  0.09838298     0.07900
C848        C  0.92414940  0.79959966  0.09924251    -0.14200
H849        H  0.97157061  0.81030672  0.07480728     0.11900
H850        H  0.91040337  0.73086850  0.02942319     0.11900
H851        H  0.86574076  0.74104353  0.07248341     0.11900
H852        H  0.92826372  0.81928844  0.11822829     0.11900
C853        C  0.23598185  0.87555009  0.12324457    -0.14200
C854        C  0.23243637  0.84187703  0.11215114     0.07900
C855        C  0.23953432  0.83361126  0.07804876    -0.14200
C856        C  0.24799466  0.85910871  0.05479980    -0.14200
C857        C  0.24920696  0.89311372  0.06540386     0.07900
C858        C  0.24402870  0.90111679  0.09993298    -0.14200
H859        H  0.23058576  0.88231341  0.14952484     0.11900
H860        H  0.23614338  0.80786225  0.06893092     0.11900
H861        H  0.25112935  0.85261823  0.02804490     0.11900
H862        H  0.24424195  0.92728144  0.10838653     0.11900
C863        C  0.11566293  0.84027151  0.20672756    -0.14200
C864        C  0.14520411  0.84725107  0.18772177     0.07900
C865        C  0.15045334  0.88037999  0.17594367    -0.14200
C866        C  0.12598672  0.90546432  0.18091121    -0.14200
C867        C  0.09566069  0.89821022  0.19811119     0.07900
C868        C  0.09098550  0.86571433  0.21198149    -0.14200
H869        H  0.11066967  0.81475755  0.21551735     0.11900
H870        H  0.17279376  0.88652768  0.16112595     0.11900
H871        H  0.13013929  0.93034875  0.17007832     0.11900
H872        H  0.06750422  0.85951421  0.22499028     0.11900
C873        C  0.13853987  0.79939625  0.06859059    -0.14200
C874        C  0.13973449  0.77612157  0.09571369     0.07900
C875        C  0.11690961  0.74852701  0.09512535    -0.14200
C876        C  0.09278168  0.74505063  0.06855647    -0.14200
C877        C  0.09078436  0.76932401  0.04238627     0.07900
C878        C  0.11416994  0.79627467  0.04255301    -0.14200
H879        H  0.15644934  0.82023841  0.06731053     0.11900
H880        H  0.11696470  0.73023366  0.11567336     0.11900
H881        H  0.07489188  0.72412142  0.06915167     0.11900
H882        H  0.11357253  0.81509909  0.02247460     0.11900
C883        C  0.88443447  0.16467853  0.06002561    -0.14200
C884        C  0.88540764  0.18222507  0.09134546     0.07900
C885        C  0.90886874  0.20898774  0.09544157    -0.14200
C886        C  0.93289068  0.21584730  0.06969915    -0.14200
C887        C  0.93382408  0.19581942  0.03982846     0.07900
C888        C  0.90849281  0.17112781  0.03478269    -0.14200
H889        H  0.86605041  0.14453691  0.05569049     0.11900
H890        H  0.91019476  0.22289906  0.11931620     0.11900
H891        H  0.95223561  0.23502492  0.07424148     0.11900
H892        H  0.90827019  0.15565774  0.01184907     0.11900
C893        C  0.95501552  0.07234134  0.15548486    -0.14200
C894        C  0.95375411  0.05170462  0.18461056     0.07900
C895        C  0.92716687  0.05639628  0.20807630    -0.14200
C896        C  0.90151027  0.08037202  0.20162107    -0.14200
C897        C  0.90228384  0.10019268  0.17176980     0.07900
C898        C  0.92976868  0.09642872  0.14928138    -0.14200
H899        H  0.97547600  0.06963735  0.13719837     0.11900
H900        H  0.92550303  0.04067160  0.23064016     0.11900
H901        H  0.88052399  0.08254637  0.21934303     0.11900
H902        H  0.93178543  0.11199991  0.12666105     0.11900
C903        C  0.78659931  0.10242606  0.07606961    -0.14200
C904        C  0.81112886  0.09559313  0.10157484     0.07900
C905        C  0.82903726  0.06481338  0.10016773    -0.14200
C906        C  0.82475751  0.04260916  0.07260958    -0.14200
C907        C  0.80193981  0.05021925  0.04592744     0.07900
C908        C  0.78180699  0.07966674  0.04850967    -0.14200
H909        H  0.77291969  0.12624749  0.07622524     0.11900
H910        H  0.84807881  0.05890013  0.11948298     0.11900
H911        H  0.84022517  0.01989507  0.07156975     0.11900
H912        H  0.76403735  0.08610825  0.02820947     0.11900
C913        C  0.20079530  0.05599910  0.86445916    -0.14200
C914        C  0.22375759  0.08298536  0.86023005     0.07900
C915        C  0.25357033  0.08393398  0.88054122    -0.14200
C916        C  0.25952630  0.05908293  0.90542716    -0.14200
C917        C  0.23558517  0.03314187  0.91066645     0.07900
C918        C  0.20648456  0.03157924  0.88954614    -0.14200
H919        H  0.17818275  0.05376690  0.84857301     0.11900
H920        H  0.27164089  0.10451340  0.87813525     0.11900
H921        H  0.28213619  0.06091436  0.92144446     0.11900
H922        H  0.18786109  0.01152362  0.89260756     0.11900
C923        C  0.13444736  0.20200868  0.86217447    -0.14200
C924        C  0.15442198  0.17262888  0.86598612     0.07900
C925        C  0.14931354  0.15213206  0.89478143    -0.14200
C926        C  0.12333991  0.15918916  0.91784886    -0.14200
C927        C  0.10196306  0.18730839  0.91322031     0.07900
C928        C  0.10842130  0.20940980  0.88578937    -0.14200
H929        H  0.13773195  0.21814812  0.84008829     0.11900
H930        H  0.16476883  0.12976461  0.89890734     0.11900
H931        H  0.11938950  0.14198863  0.93900625     0.11900
H932        H  0.09224795  0.23124706  0.88159088     0.11900
C933        C  0.11213796  0.10762245  0.78952821    -0.14200
C934        C  0.14425106  0.10385101  0.77445973     0.07900
C935        C  0.14842076  0.08061212  0.74754878    -0.14200
C936        C  0.12139746  0.05918771  0.73807709    -0.14200
C937        C  0.09029312  0.06090283  0.75563104     0.07900
C938        C  0.08540487  0.08623042  0.78029884    -0.14200
H939        H  0.10825700  0.12593864  0.80984130     0.11900
H940        H  0.17308779  0.07737243  0.73568336     0.11900
H941        H  0.12566435  0.03958436  0.71910779     0.11900
H942        H  0.06146124  0.08817662  0.79385340     0.11900
C943        C  0.20732415  0.09847608  0.06977584    -0.14200
C944        C  0.22627987  0.10293575  0.10011214     0.07900
C945        C  0.25304591  0.08016003  0.10719573    -0.14200
C946        C  0.25941419  0.05252617  0.08505571    -0.14200
C947        C  0.23871907  0.04708748  0.05591167     0.07900
C948        C  0.21321451  0.07084619  0.04822206    -0.14200
H949        H  0.18674307  0.11570392  0.06343654     0.11900
H950        H  0.26770511  0.08264020  0.13066582     0.11900
H951        H  0.27924965  0.03454789  0.09158450     0.11900
H952        H  0.19725308  0.06766678  0.02567757     0.11900
C953        C  0.13033474  0.03736485  0.17483170    -0.14200
C954        C  0.10303647  0.04273740  0.19718654     0.07900
C955        C  0.10180904  0.07323669  0.21595871    -0.14200
C956        C  0.12619461  0.09890068  0.21033966    -0.14200
C957        C  0.15218568  0.09411227  0.18617462     0.07900
C958        C  0.15470231  0.06257507  0.16961175    -0.14200
H959        H  0.13204917  0.01402232  0.16025047     0.11900
H960        H  0.08080430  0.07809421  0.23312306     0.11900
H961        H  0.12339475  0.12315539  0.22304719     0.11900
H962        H  0.17458213  0.05808739  0.15104435     0.11900
C963        C  0.13374252  0.20557635  0.08834270    -0.14200
C964        C  0.13454510  0.17461846  0.10614080     0.07900
C965        C  0.10750549  0.15168262  0.10159115    -0.14200
C966        C  0.08166164  0.15821428  0.07795859    -0.14200
C967        C  0.08189489  0.18811299  0.05861972     0.07900
C968        C  0.10746506  0.21234071  0.06484998    -0.14200
H969        H  0.15413605  0.22386074  0.09133923     0.11900
H970        H  0.10636556  0.12831033  0.11596817     0.11900
H971        H  0.06190499  0.13933853  0.07415983     0.11900
H972        H  0.10820445  0.23561874  0.05024444     0.11900
C973        C  0.25646703  0.74217170  0.76366846    -0.17300
C974        C  0.23465369  0.76758918  0.75612155    -0.32500
H975        H  0.25956516  0.73547888  0.79045416     0.11700
H976        H  0.23249400  0.77569869  0.72977775     0.12300
C977        C  0.79056673  0.77474223  0.17848139    -0.17300
C978        C  0.79972731  0.75324359  0.20386176    -0.32500
H979        H  0.76367400  0.77658489  0.17178029     0.11700
H980        H  0.82658287  0.75164414  0.21083059     0.12300
C981        C  0.78930847  0.20872515  0.73883674    -0.17300
C982        C  0.82301657  0.20321716  0.74212467    -0.32500
H983        H  0.77213417  0.19462401  0.75500245     0.11700
H984        H  0.84051251  0.21640531  0.72540318     0.12300
C985        C  0.24206651  0.20039320  0.75301349    -0.17300
C986        C  0.25004670  0.17748364  0.77724778    -0.32500
H987        H  0.21521618  0.20434093  0.74711593     0.11700
H988        H  0.27676877  0.17258599  0.78291155     0.12300
C989        C  0.24757854  0.74709566  0.21326802    -0.17300
C990        C  0.22108420  0.74119145  0.19174412    -0.32500
H991        H  0.25658370  0.77307502  0.21568770     0.11700
H992        H  0.21216491  0.71534053  0.18818227     0.12300
C993        C  0.78674271  0.20929616  0.19304025    -0.17300
C994        C  0.81022876  0.18497122  0.19857964    -0.32500
H995        H  0.77883650  0.21427911  0.16682444     0.11700
H996        H  0.81777857  0.18020038  0.22494152     0.12300
C997        C  0.22941503  0.19999981  0.18962787    -0.17300
C998        C  0.25509125  0.19381555  0.21168501    -0.32500
H999        H  0.22127440  0.22614483  0.18657427     0.11700
H1000       H  0.26337684  0.16763464  0.21415324     0.12300
C1001       C  0.21196468  0.34391544  0.41045156    -0.14200
C1002       C  0.23363844  0.34231777  0.38199657     0.07900
C1003       C  0.26243136  0.36369697  0.38147701    -0.14200
C1004       C  0.26793495  0.38769150  0.40772305    -0.14200
C1005       C  0.24459074  0.39085810  0.43474291     0.07900
C1006       C  0.21717745  0.36799745  0.43625910    -0.14200
H1007       H  0.19025960  0.32705042  0.41243374     0.11900
H1008       H  0.27965509  0.36311938  0.35995866     0.11900
H1009       H  0.28928874  0.40501195  0.40585213     0.11900
H1010       H  0.19909267  0.36936627  0.45703151     0.11900
C1011       C  0.25455136  0.26319360  0.28044891    -0.17300
C1012       C  0.24588273  0.23920453  0.25696995    -0.32500
H1013       H  0.28143391  0.26902058  0.28402716     0.11700
H1014       H  0.21910810  0.23262052  0.25398642     0.12300
C1015       C  0.25693036  0.59655015  0.60806296    -0.14200
C1016       C  0.23083579  0.61927458  0.59874065     0.07900
C1017       C  0.21321238  0.61402868  0.56781866    -0.14200
C1018       C  0.21937510  0.58527800  0.54800262    -0.14200
C1019       C  0.24367314  0.56123600  0.55833414     0.07900
C1020       C  0.26348438  0.56772398  0.58779448    -0.14200
H1021       H  0.27053626  0.59981857  0.63206084     0.11900
H1022       H  0.19318033  0.63128532  0.55993550     0.11900
H1023       H  0.20420808  0.58119079  0.52506452     0.11900
H1024       H  0.28239689  0.54953161  0.59623460     0.11900
C1025       C  0.23371777  0.71177329  0.69058038    -0.17300
C1026       C  0.25757301  0.70109545  0.71319643    -0.32500
H1027       H  0.22871545  0.73856025  0.68770143     0.11700
H1028       H  0.26239225  0.67398873  0.71412947     0.12300
C1029       C  0.20404347  0.56264798  0.37432430    -0.14200
C1030       C  0.22696429  0.58967065  0.37037006     0.07900
C1031       C  0.25781744  0.58944976  0.38901435    -0.14200
C1032       C  0.26453006  0.56359980  0.41267990    -0.14200
C1033       C  0.24035715  0.53787134  0.41805859     0.07900
C1034       C  0.21050680  0.53727150  0.39803798    -0.14200
H1035       H  0.18073438  0.56116989  0.35935846     0.11900
H1036       H  0.27601671  0.60992117  0.38639099     0.11900
H1037       H  0.28769849  0.56467405  0.42793255     0.11900
H1038       H  0.19163215  0.51747075  0.40125387     0.11900
C1039       C  0.24805134  0.68026876  0.28217184    -0.17300
C1040       C  0.23919635  0.70426036  0.25941151    -0.32500
H1041       H  0.27472547  0.67293006  0.28408815     0.11700
H1042       H  0.21261315  0.71201189  0.25782607     0.12300
C1043       C  0.25454190  0.35443412  0.60702073    -0.14200
C1044       C  0.22741642  0.35949052  0.62973594     0.07900
C1045       C  0.21158868  0.39125492  0.63135730    -0.14200
C1046       C  0.22061302  0.41672216  0.60863537    -0.14200
C1047       C  0.24562313  0.41089817  0.58382329     0.07900
C1048       C  0.26367080  0.38013628  0.58407544    -0.14200
H1049       H  0.26688425  0.32992873  0.60535374     0.11900
H1050       H  0.19086899  0.39573631  0.64900399     0.11900
H1051       H  0.20649912  0.44032489  0.60900447     0.11900
H1052       H  0.28274727  0.37500824  0.56486038     0.11900
C1053       C  0.25062438  0.24388742  0.70810236    -0.17300
C1054       C  0.22496420  0.26502825  0.71655056    -0.32500
H1055       H  0.25721303  0.24185762  0.68120699     0.11700
H1056       H  0.21779405  0.26723726  0.74325972     0.12300
C1057       C  0.09257692  0.26950413  0.37528220    -0.14200
C1058       C  0.09738316  0.24941879  0.40439166     0.07900
C1059       C  0.12883490  0.23300825  0.40947265    -0.14200
C1060       C  0.15607062  0.23919933  0.38710951    -0.14200
C1061       C  0.15174355  0.26161160  0.35958092     0.07900
C1062       C  0.11944914  0.27545234  0.35305664    -0.14200
H1063       H  0.06853796  0.28241434  0.37095684     0.11900
H1064       H  0.13314625  0.21781540  0.43211322     0.11900
H1065       H  0.18100075  0.22873343  0.39280124     0.11900
H1066       H  0.11565798  0.29286236  0.33199544     0.11900
C1067       C  0.10208112  0.24137567  0.58346563    -0.14200
C1068       C  0.10167603  0.26221393  0.55426487     0.07900
C1069       C  0.12654751  0.28770702  0.55167737    -0.14200
C1070       C  0.14997500  0.29354430  0.57816208    -0.14200
C1071       C  0.14905757  0.27447570  0.60841758     0.07900
C1072       C  0.12551718  0.24754527  0.61043203    -0.14200
H1073       H  0.08316125  0.22154330  0.58624177     0.11900
H1074       H  0.12736083  0.30383996  0.52935711     0.11900
H1075       H  0.16826194  0.31394020  0.57535001     0.11900
H1076       H  0.12401671  0.23253650  0.63346903     0.11900
C1077       C  0.11471765  0.37462468  0.25504003    -0.14200
C1078       C  0.10699660  0.40034581  0.27885282     0.07900
C1079       C  0.12693227  0.40280996  0.30874124    -0.14200
C1080       C  0.15298271  0.37964175  0.31541950    -0.14200
C1081       C  0.15958885  0.35264065  0.29286756     0.07900
C1082       C  0.14069915  0.35079833  0.26209338    -0.14200
H1083       H  0.09984621  0.37216052  0.23169227     0.11900
H1084       H  0.12223998  0.42271752  0.32725384     0.11900
H1085       H  0.16769379  0.38268529  0.33880270     0.11900
H1086       H  0.14506830  0.33027599  0.24422564     0.11900
C1087       C  0.09209660  0.57233726  0.30358845    -0.14200
C1088       C  0.09802602  0.54848194  0.27759955     0.07900
C1089       C  0.12734460  0.55191039  0.25736618    -0.14200
C1090       C  0.15129934  0.57764398  0.26454997    -0.14200
C1091       C  0.14594599  0.60047557  0.29175030     0.07900
C1092       C  0.11551865  0.59815958  0.31031794    -0.14200
H1093       H  0.06940760  0.57071263  0.31916386     0.11900
H1094       H  0.13250078  0.53380284  0.23718412     0.11900
H1095       H  0.17467153  0.57863659  0.25000445     0.11900
H1096       H  0.11016313  0.61584674  0.33082686     0.11900
C1097       C  0.13313088  0.55258222  0.67070631    -0.14200
C1098       C  0.10934231  0.55667661  0.69696565     0.07900
C1099       C  0.11087812  0.58580567  0.71773945    -0.14200
C1100       C  0.13427357  0.61169531  0.71045556    -0.14200
C1101       C  0.15639257  0.60842748  0.68252277     0.07900
C1102       C  0.15660179  0.57804117  0.66377898    -0.14200
H1103       H  0.13267384  0.53017779  0.65461180     0.11900
H1104       H  0.09253963  0.58954397  0.73800128     0.11900
H1105       H  0.13358950  0.63498348  0.72516102     0.11900
H1106       H  0.17402571  0.57450721  0.64267414     0.11900
C1107       C  0.11450938  0.40266855  0.72382981    -0.14200
C1108       C  0.08806885  0.40765012  0.69990156     0.07900
C1109       C  0.08357759  0.38405964  0.67327719    -0.14200
C1110       C  0.10612743  0.35705849  0.66948142    -0.14200
C1111       C  0.13389500  0.35321101  0.69198761     0.07900
C1112       C  0.13740454  0.37563671  0.71981740    -0.14200
H1113       H  0.11850686  0.42060788  0.74451013     0.11900
H1114       H  0.06304053  0.38698681  0.65481507     0.11900
H1115       H  0.10249055  0.33975173  0.64817739     0.11900
H1116       H  0.15883446  0.37336115  0.73730480     0.11900
C1117       C  0.10619308  0.72590073  0.56442593    -0.14200
C1118       C  0.08098857  0.70084144  0.55964232     0.07900
C1119       C  0.08238488  0.67160055  0.57994068    -0.14200
C1120       C  0.10924441  0.66649574  0.60293407    -0.14200
C1121       C  0.13596644  0.69016590  0.60593342     0.07900
C1122       C  0.13353867  0.72056513  0.58735657    -0.14200
H1123       H  0.10580702  0.74869034  0.54911546     0.11900
H1124       H  0.06310372  0.65202022  0.57734621     0.11900
H1125       H  0.10927133  0.64351237  0.61791284     0.11900
H1126       H  0.15355093  0.73942560  0.58926782     0.11900
C1127       C  0.12562933  0.67279409  0.42708809    -0.14200
C1128       C  0.10197268  0.69795936  0.41824839     0.07900
C1129       C  0.10752971  0.71751231  0.38880836    -0.14200
C1130       C  0.13469810  0.70962639  0.36685048    -0.14200
C1131       C  0.15656732  0.68239798  0.37449220     0.07900
C1132       C  0.15274994  0.66531389  0.40561241    -0.14200
H1133       H  0.12230281  0.65786872  0.45001698     0.11900
H1134       H  0.08961233  0.73716738  0.38160778     0.11900
H1135       H  0.13712888  0.72309600  0.34292277     0.11900
H1136       H  0.16972627  0.64471475  0.41245488     0.11900
C1137       C  0.90799120  0.67589857  0.53762234    -0.14200
C1138       C  0.93112462  0.70298449  0.53949596     0.07900
C1139       C  0.92832157  0.72647383  0.56650674    -0.14200
C1140       C  0.90507611  0.72082995  0.59310509    -0.14200
C1141       C  0.88424472  0.69185198  0.59264178     0.07900
C1142       C  0.88454722  0.67065926  0.56367340    -0.14200
H1143       H  0.90915235  0.65776502  0.51678541     0.11900
H1144       H  0.94585908  0.74762943  0.56843706     0.11900
H1145       H  0.90528093  0.73755152  0.61512602     0.11900
H1146       H  0.86802643  0.64865369  0.56214534     0.11900
C1147       C  0.91115166  0.60277102  0.71187938    -0.14200
C1148       C  0.91110096  0.62131460  0.68124146     0.07900
C1149       C  0.93892362  0.61857781  0.65912442    -0.14200
C1150       C  0.96489114  0.59551171  0.66590418    -0.14200
C1151       C  0.96364915  0.57492714  0.69506932     0.07900
C1152       C  0.93739482  0.57971914  0.71881503    -0.14200
H1153       H  0.88993084  0.60451200  0.72937638     0.11900
H1154       H  0.94003842  0.63342592  0.63591571     0.11900
H1155       H  0.98526936  0.59273652  0.64752389     0.11900
H1156       H  0.93593253  0.56409724  0.74148110     0.11900
C1157       C  0.79056754  0.60633895  0.59003695    -0.14200
C1158       C  0.81870274  0.60266674  0.61229538     0.07900
C1159       C  0.83955333  0.57400722  0.60904656    -0.14200
C1160       C  0.83423262  0.55087463  0.58257115    -0.14200
C1161       C  0.80756996  0.55545788  0.55886802     0.07900
C1162       C  0.78488416  0.58267116  0.56351638    -0.14200
H1163       H  0.77439027  0.62849196  0.59180017     0.11900
H1164       H  0.86117902  0.57037656  0.62608009     0.11900
H1165       H  0.85169370  0.52976534  0.58004530     0.11900
H1166       H  0.76408284  0.58667451  0.54560159     0.11900
C1167       C  0.81141928  0.69758827  0.70122398    -0.17300
C1168       C  0.78466887  0.71715574  0.69317011    -0.32500
H1169       H  0.81813543  0.69479379  0.72810318     0.11700
H1170       H  0.77811238  0.72048446  0.66630979     0.12300
C1171       C  0.93534691  0.66070344  0.34309874    -0.14200
C1172       C  0.90686373  0.68147052  0.33723475     0.07900
C1173       C  0.90404769  0.71197068  0.35577990    -0.14200
C1174       C  0.92784447  0.71983842  0.38187182    -0.14200
C1175       C  0.95441026  0.69709437  0.38973298     0.07900
C1176       C  0.95856167  0.66821792  0.36913031    -0.14200
H1177       H  0.93896540  0.63765078  0.32844881     0.11900
H1178       H  0.88240332  0.72852938  0.35162523     0.11900
H1179       H  0.92421130  0.74240836  0.39723157     0.11900
H1180       H  0.97921212  0.65060115  0.37398428     0.11900
C1181       C  0.79159717  0.58555940  0.34885123    -0.14200
C1182       C  0.81760321  0.61003834  0.35191124     0.07900
C1183       C  0.83564170  0.61247365  0.38304557    -0.14200
C1184       C  0.83022476  0.58922376  0.40927162    -0.14200
C1185       C  0.80599494  0.56328609  0.40554642     0.07900
C1186       C  0.78566246  0.56243395  0.37564621    -0.14200
H1187       H  0.77749496  0.58289374  0.32505910     0.11900
H1188       H  0.85543938  0.63139680  0.38643747     0.11900
H1189       H  0.84588517  0.59083977  0.43217969     0.11900
H1190       H  0.76680824  0.54263354  0.37211577     0.11900
C1191       C  0.92047500  0.59003903  0.24317474    -0.14200
C1192       C  0.89785303  0.58925345  0.27098161     0.07900
C1193       C  0.89998401  0.56222425  0.29409131    -0.14200
C1194       C  0.92559747  0.53797702  0.29117402    -0.14200
C1195       C  0.94957999  0.53969901  0.26472573     0.07900
C1196       C  0.94613408  0.56527962  0.23998387    -0.14200
H1197       H  0.91944747  0.61064347  0.22502259     0.11900
H1198       H  0.88232149  0.56028396  0.31518992     0.11900
H1199       H  0.92705812  0.51812282  0.31017273     0.11900
H1200       H  0.96421850  0.56709724  0.21924622     0.11900
C1201       C  0.81513455  0.68480041  0.24349863    -0.17300
C1202       C  0.79267961  0.70979581  0.25051475    -0.32500
H1203       H  0.81994602  0.67872236  0.21683425     0.11700
H1204       H  0.78719985  0.71507639  0.27722889     0.12300
C1205       C  0.84102432  0.36007529  0.39017385    -0.14200
C1206       C  0.82020154  0.35653334  0.36104910     0.07900
C1207       C  0.79263931  0.37897943  0.35645367    -0.14200
C1208       C  0.78717472  0.40554113  0.37984045    -0.14200
C1209       C  0.80950081  0.41010046  0.40775391     0.07900
C1210       C  0.83590493  0.38666730  0.41307072    -0.14200
H1211       H  0.86183194  0.34263794  0.39493398     0.11900
H1212       H  0.77629132  0.37689785  0.33407492     0.11900
H1213       H  0.76658736  0.42327614  0.37534411     0.11900
H1214       H  0.85295509  0.38918433  0.43489528     0.11900
C1215       C  0.93192105  0.29196026  0.35140636    -0.14200
C1216       C  0.90108423  0.27365139  0.35104358     0.07900
C1217       C  0.89713143  0.24736376  0.37499419    -0.14200
C1218       C  0.92258803  0.24130565  0.40012557    -0.14200
C1219       C  0.95206148  0.26180062  0.40194736     0.07900
C1220       C  0.95670484  0.28646836  0.37663653    -0.14200
H1221       H  0.93640164  0.31172790  0.33282498     0.11900
H1222       H  0.87367964  0.23285881  0.37550771     0.11900
H1223       H  0.91836914  0.22196873  0.41920419     0.11900
H1224       H  0.97939194  0.30219456  0.37678766     0.11900
C1225       C  0.91864303  0.34951836  0.24975641    -0.14200
C1226       C  0.89316477  0.35730606  0.27371769     0.07900
C1227       C  0.89469207  0.38843545  0.29107893    -0.14200
C1228       C  0.92237404  0.41011010  0.28689818    -0.14200
C1229       C  0.94910671  0.40153716  0.26485275     0.07900
C1230       C  0.94643986  0.37174890  0.24511306    -0.14200
H1231       H  0.91821222  0.32542439  0.23642563     0.11900
H1232       H  0.87531305  0.39512481  0.30952827     0.11900
H1233       H  0.92347170  0.43326267  0.30189017     0.11900
H1234       H  0.96672666  0.36471847  0.22782913     0.11900
C1235       C  0.79585920  0.26978481  0.26882286    -0.17300
C1236       C  0.80122816  0.24978427  0.24122611    -0.32500
H1237       H  0.76959122  0.27303526  0.27690049     0.11700
H1238       H  0.82726347  0.24667805  0.23239808     0.12300
C1239       C  0.91880706  0.37516183  0.71374868    -0.14200
C1240       C  0.89672519  0.37714130  0.68536020     0.07900
C1241       C  0.89661664  0.40649608  0.66526729    -0.14200
C1242       C  0.92020513  0.43219089  0.67149129    -0.14200
C1243       C  0.94405716  0.42916868  0.69821535     0.07900
C1244       C  0.94234946  0.40118705  0.72021937    -0.14200
H1245       H  0.91930519  0.35269919  0.72953301     0.11900
H1246       H  0.87913450  0.40900262  0.64380431     0.11900
H1247       H  0.92077499  0.45379591  0.65451586     0.11900
H1248       H  0.96069891  0.39833637  0.74088005     0.11900
C1249       C  0.83264999  0.38394049  0.54399234    -0.14200
C1250       C  0.80905891  0.41001604  0.54971051     0.07900
C1251       C  0.79005236  0.40992123  0.58009564    -0.14200
C1252       C  0.79626981  0.38523731  0.60530742    -0.14200
C1253       C  0.82125321  0.36023349  0.60011240     0.07900
C1254       C  0.83847813  0.35923750  0.56876951    -0.14200
H1255       H  0.84736704  0.38326766  0.52066318     0.11900
H1256       H  0.77191344  0.42999386  0.58514755     0.11900
H1257       H  0.78317148  0.38689587  0.62951941     0.11900
H1258       H  0.85781044  0.34017549  0.56411298     0.11900
C1259       C  0.90536339  0.25928888  0.59002541    -0.14200
C1260       C  0.90937738  0.28883935  0.60990484     0.07900
C1261       C  0.93771295  0.30979121  0.60405481    -0.14200
C1262       C  0.96039357  0.30263815  0.57773147    -0.14200
C1263       C  0.95579796  0.27391823  0.55693833     0.07900
C1264       C  0.92858189  0.25176115  0.56381959    -0.14200
H1265       H  0.88359316  0.24285493  0.59377955     0.11900
H1266       H  0.94206545  0.33226543  0.61948909     0.11900
H1267       H  0.98156492  0.31974748  0.57354205     0.11900
H1268       H  0.92457332  0.22937639  0.54817811     0.11900
C1269       C  0.81696902  0.27804388  0.70127131    -0.17300
C1270       C  0.79703126  0.25245315  0.69025988    -0.32500
H1271       H  0.81748188  0.28415637  0.72841831     0.11700
H1272       H  0.79720582  0.24721998  0.66290908     0.12300
C1273       C  0.62792599  0.86321663  0.70688483    -0.14200
C1274       C  0.64890896  0.86823122  0.67834143     0.07900
C1275       C  0.64552313  0.89814769  0.65936668    -0.14200
C1276       C  0.61993811  0.92132299  0.66682856    -0.14200
C1277       C  0.59737876  0.91543922  0.69379934     0.07900
C1278       C  0.60227387  0.88687004  0.71468417    -0.14200
H1279       H  0.63005321  0.84024503  0.72179504     0.11900
H1280       H  0.66189593  0.90301842  0.63772591     0.11900
H1281       H  0.61702190  0.94339903  0.65067836     0.11900
H1282       H  0.58503632  0.88181133  0.73558301     0.11900
C1283       C  0.69647609  0.86989148  0.56142898    -0.14200
C1284       C  0.71907638  0.86544230  0.58903810     0.07900
C1285       C  0.74881647  0.88542638  0.59088277    -0.14200
C1286       C  0.75493283  0.91041619  0.56628907    -0.14200
C1287       C  0.73115581  0.91595745  0.53987597     0.07900
C1288       C  0.70225446  0.89504953  0.53737491    -0.14200
H1289       H  0.67404825  0.85410258  0.55839251     0.11900
H1290       H  0.76666524  0.88265598  0.61195566     0.11900
H1291       H  0.77741968  0.92624735  0.56869688     0.11900
H1292       H  0.68384307  0.89831589  0.51683326     0.11900
C1293       C  0.60968285  0.79606769  0.60038966    -0.14200
C1294       C  0.64189701  0.78065513  0.60088891     0.07900
C1295       C  0.64892360  0.75459666  0.57734849    -0.14200
C1296       C  0.62475750  0.74593056  0.55208870    -0.14200
C1297       C  0.59364732  0.76350076  0.55011436     0.07900
C1298       C  0.58592015  0.78779392  0.57510360    -0.14200
H1299       H  0.60338982  0.81569223  0.61874890     0.11900
H1300       H  0.67370964  0.74251383  0.57716806     0.11900
H1301       H  0.63118081  0.72713915  0.53291725     0.11900
H1302       H  0.56184134  0.80124144  0.57435708     0.11900
C1303       C  0.74385631  0.78041921  0.68186069    -0.17300
C1304       C  0.73553330  0.75562054  0.70369605    -0.32500
H1305       H  0.77051759  0.78538592  0.67664994     0.11700
H1306       H  0.70861625  0.75030415  0.70763664     0.12300
C1307       C  0.40392466  0.85599858  0.71329659    -0.14200
C1308       C  0.40987827  0.83453624  0.68512769     0.07900
C1309       C  0.43924916  0.83951425  0.66554669    -0.14200
C1310       C  0.46074528  0.86692041  0.67199458    -0.14200
C1311       C  0.45370863  0.88993693  0.69846104     0.07900
C1312       C  0.42589555  0.88355902  0.72006295    -0.14200
H1313       H  0.38119476  0.85283051  0.72855067     0.11900
H1314       H  0.44465213  0.82311935  0.64398011     0.11900
H1315       H  0.48231614  0.87089810  0.65529327     0.11900
H1316       H  0.41993736  0.90098729  0.74060683     0.11900
C1317       C  0.40273965  0.78927602  0.56442600    -0.14200
C1318       C  0.39979565  0.76592398  0.59123754     0.07900
C1319       C  0.41959500  0.73614136  0.59001466    -0.14200
C1320       C  0.44335275  0.73106557  0.56359812    -0.14200
C1321       C  0.44774364  0.75577333  0.53813220     0.07900
C1322       C  0.42644801  0.78440305  0.53846408    -0.14200
H1323       H  0.38706959  0.81182963  0.56370155     0.11900
H1324       H  0.41789502  0.71759011  0.61025380     0.11900
H1325       H  0.45934972  0.70870833  0.56401867     0.11900
H1326       H  0.42862545  0.80365214  0.51891157     0.11900
C1327       C  0.33924722  0.87920478  0.61984471    -0.14200
C1328       C  0.32078395  0.84881205  0.61700414     0.07900
C1329       C  0.29194453  0.84762768  0.59544375    -0.14200
C1330       C  0.28378548  0.87552767  0.57466033    -0.14200
C1331       C  0.30453157  0.90467510  0.57523604     0.07900
C1332       C  0.33138460  0.90670707  0.59904784    -0.14200
H1333       H  0.36101581  0.88114811  0.63699721     0.11900
H1334       H  0.27726945  0.82445557  0.59289673     0.11900
H1335       H  0.26304061  0.87331270  0.55633993     0.11900
H1336       H  0.34751703  0.92900191  0.60028383     0.11900
C1337       C  0.31905406  0.74185450  0.68966912    -0.17300
C1338       C  0.29830574  0.75058748  0.71563501    -0.32500
H1339       H  0.32176321  0.71520420  0.68314342     0.11700
H1340       H  0.29561975  0.77731768  0.72184601     0.12300
C1341       C  0.42986462  0.78077920  0.34407410    -0.14200
C1342       C  0.39921841  0.76313414  0.34909377     0.07900
C1343       C  0.39837820  0.73662907  0.37295766    -0.14200
C1344       C  0.42707458  0.73018795  0.39374179    -0.14200
C1345       C  0.45650572  0.75041310  0.39085055     0.07900
C1346       C  0.45808791  0.77471395  0.36491373    -0.14200
H1347       H  0.43133645  0.80088523  0.32533875     0.11900
H1348       H  0.37494956  0.72278545  0.37727880     0.11900
H1349       H  0.42529032  0.71143558  0.41381465     0.11900
H1350       H  0.48058616  0.79038937  0.36203714     0.11900
C1351       C  0.38734009  0.88138029  0.30074552    -0.14200
C1352       C  0.38360396  0.85158113  0.28136487     0.07900
C1353       C  0.40526339  0.84653583  0.25320328    -0.14200
C1354       C  0.43107315  0.87037362  0.24565312    -0.14200
C1355       C  0.43573687  0.89930980  0.26642401     0.07900
C1356       C  0.41304251  0.90473179  0.29353196    -0.14200
H1357       H  0.37095004  0.88610775  0.32245196     0.11900
H1358       H  0.40333967  0.82349106  0.23819534     0.11900
H1359       H  0.44831100  0.86541893  0.22469926     0.11900
H1360       H  0.41560837  0.92692504  0.30974078     0.11900
C1361       C  0.28684988  0.86189142  0.37589963    -0.14200
C1362       C  0.31668731  0.84208565  0.37527429     0.07900
C1363       C  0.33999204  0.84481722  0.40259993    -0.14200
C1364       C  0.33483992  0.86837016  0.42875631    -0.14200
C1365       C  0.30604898  0.88953211  0.42846917     0.07900
C1366       C  0.28152092  0.88537719  0.40236745    -0.14200
H1367       H  0.26844531  0.86040167  0.35514943     0.11900
H1368       H  0.36264519  0.82916319  0.40350291     0.11900
H1369       H  0.35393273  0.87064883  0.44882881     0.11900
H1370       H  0.25917937  0.90148144  0.40143869     0.11900
C1371       C  0.28852750  0.76140632  0.27865926    -0.17300
C1372       C  0.29433199  0.73668258  0.25551037    -0.32500
H1373       H  0.26218457  0.76809230  0.28389941     0.11700
H1374       H  0.32053775  0.72908918  0.25091290     0.12300
C1375       C  0.75889865  0.87150563  0.36637007    -0.14200
C1376       C  0.72961915  0.87118709  0.34532691     0.07900
C1377       C  0.70717673  0.89876130  0.34628493    -0.14200
C1378       C  0.71219800  0.92484089  0.36971411    -0.14200
C1379       C  0.73994368  0.92411493  0.39260077     0.07900
C1380       C  0.76409324  0.89797176  0.38993960    -0.14200
H1381       H  0.77667112  0.85050990  0.36588390     0.11900
H1382       H  0.68508447  0.89975327  0.32950214     0.11900
H1383       H  0.69361448  0.94512921  0.37069300     0.11900
H1384       H  0.78573514  0.89699214  0.40728275     0.11900
C1385       C  0.64169798  0.74821050  0.35139819    -0.14200
C1386       C  0.66162606  0.77767184  0.35581906     0.07900
C1387       C  0.65688626  0.79733054  0.38539711    -0.14200
C1388       C  0.63109002  0.78968791  0.40845292    -0.14200
C1389       C  0.60954924  0.76168233  0.40312588     0.07900
C1390       C  0.61588316  0.74015275  0.37506758    -0.14200
H1391       H  0.64471229  0.73264627  0.32878264     0.11900
H1392       H  0.67236270  0.81967319  0.39009282     0.11900
H1393       H  0.62734844  0.80639493  0.43013675     0.11900
H1394       H  0.59968317  0.71833503  0.37037589     0.11900
C1395       C  0.64597147  0.87509044  0.24366027    -0.14200
C1396       C  0.64468197  0.85088535  0.26995174     0.07900
C1397       C  0.61469009  0.84828214  0.28928386    -0.14200
C1398       C  0.58767550  0.87076428  0.28437397    -0.14200
C1399       C  0.58936625  0.89598938  0.25934000     0.07900
C1400       C  0.61833147  0.89739444  0.23822223    -0.14200
H1401       H  0.66893136  0.87798593  0.22869245     0.11900
H1402       H  0.61266239  0.82960703  0.30937610     0.11900
H1403       H  0.56560379  0.86891867  0.30081009     0.11900
H1404       H  0.62036792  0.91686447  0.21892215     0.11900
C1405       C  0.75310729  0.77656129  0.26240109    -0.17300
C1406       C  0.74601860  0.75191834  0.23955846    -0.32500
H1407       H  0.77979594  0.78240192  0.26745405     0.11700
H1408       H  0.71936130  0.74656329  0.23378195     0.12300
C1409       C  0.42328109  0.15609808  0.41387151    -0.14200
C1410       C  0.44366908  0.18465879  0.40799050     0.07900
C1411       C  0.43440371  0.20729797  0.38185506    -0.14200
C1412       C  0.40658608  0.19988560  0.36022365    -0.14200
C1413       C  0.38761128  0.17003690  0.36495370     0.07900
C1414       C  0.39534912  0.14911855  0.39288827    -0.14200
H1415       H  0.42926337  0.13877855  0.43450153     0.11900
H1416       H  0.44960033  0.22972195  0.37714698     0.11900
H1417       H  0.40110742  0.21639567  0.33883895     0.11900
H1418       H  0.38045914  0.12655567  0.39787365     0.11900
C1419       C  0.28620327  0.08263906  0.37854877    -0.14200
C1420       C  0.31541544  0.08106970  0.35790147     0.07900
C1421       C  0.33807977  0.05382979  0.36203035    -0.14200
C1422       C  0.33337764  0.03038293  0.38809197    -0.14200
C1423       C  0.30543417  0.03312262  0.41013887     0.07900
C1424       C  0.28114210  0.05864992  0.40438772    -0.14200
H1425       H  0.26829516  0.10333671  0.37600580     0.11900
H1426       H  0.36009112  0.05103778  0.34568822     0.11900
H1427       H  0.35209053  0.01047115  0.39149772     0.11900
H1428       H  0.25931450  0.06118912  0.42104562     0.11900
C1429       C  0.39007887  0.07591602  0.24804529    -0.14200
C1430       C  0.39518532  0.09855011  0.27553920     0.07900
C1431       C  0.42636287  0.09763786  0.29342117    -0.14200
C1432       C  0.45033948  0.07254944  0.28664225    -0.14200
C1433       C  0.44425353  0.04807325  0.26120469     0.07900
C1434       C  0.41467070  0.05086804  0.24074599    -0.14200
H1435       H  0.36625397  0.07608927  0.23385393     0.11900
H1436       H  0.43147293  0.11531295  0.31411890     0.11900
H1437       H  0.47328836  0.07155963  0.30223402     0.11900
H1438       H  0.40954700  0.03244308  0.22075829     0.11900
C1439       C  0.29149894  0.17790061  0.27694585    -0.17300
C1440       C  0.29943349  0.20389723  0.25624422    -0.32500
H1441       H  0.26481726  0.17083373  0.27945395     0.11700
H1442       H  0.32607194  0.21120957  0.25391949     0.12300
C1443       C  0.38595070  0.06770483  0.66563336    -0.14200
C1444       C  0.38877181  0.09785743  0.68463487     0.07900
C1445       C  0.41056587  0.09874144  0.71332861    -0.14200
C1446       C  0.43160790  0.07088523  0.72078920    -0.14200
C1447       C  0.43107137  0.04206013  0.69950528     0.07900
C1448       C  0.40700992  0.04021005  0.67283528    -0.14200
H1449       H  0.36854498  0.06592155  0.64403406     0.11900
H1450       H  0.41306153  0.12167948  0.72843935     0.11900
H1451       H  0.45010420  0.07294213  0.74141999     0.11900
H1452       H  0.40578249  0.01811561  0.65632364     0.11900
C1453       C  0.40817718  0.20947558  0.58248787    -0.14200
C1454       C  0.41006091  0.18116545  0.60421801     0.07900
C1455       C  0.43773333  0.15882953  0.60063515    -0.14200
C1456       C  0.46195929  0.16363682  0.57502312    -0.14200
C1457       C  0.45947952  0.19112869  0.55238404     0.07900
C1458       C  0.43272602  0.21446977  0.55685353    -0.14200
H1459       H  0.38696665  0.22693687  0.58436320     0.11900
H1460       H  0.44039377  0.13717037  0.61734965     0.11900
H1461       H  0.48250195  0.14543551  0.57263235     0.11900
H1462       H  0.43002276  0.23578086  0.53970366     0.11900
C1463       C  0.32943147  0.08162049  0.54632321    -0.14200
C1464       C  0.30413827  0.05778681  0.55428758     0.07900
C1465       C  0.28336087  0.06361950  0.58290964    -0.14200
C1466       C  0.29003363  0.09129611  0.60487504    -0.14200
C1467       C  0.31722822  0.11352584  0.59809150     0.07900
C1468       C  0.33569541  0.10924536  0.56777333    -0.14200
H1469       H  0.34539201  0.07812255  0.52407171     0.11900
H1470       H  0.26363192  0.04562748  0.58951827     0.11900
H1471       H  0.27564753  0.09388743  0.62827427     0.11900
H1472       H  0.35650871  0.12622872  0.56170538     0.11900
C1473       C  0.29211311  0.19603080  0.71426618    -0.17300
C1474       C  0.31660894  0.20510768  0.69182342    -0.32500
H1475       H  0.28698087  0.16906333  0.71677280     0.11700
H1476       H  0.32220058  0.23174684  0.68820063     0.12300
C1477       C  0.71104815  0.06978839  0.33755234    -0.14200
C1478       C  0.72695794  0.10136023  0.33457701     0.07900
C1479       C  0.75202290  0.11102773  0.35868331    -0.14200
C1480       C  0.75885854  0.09029320  0.38712294    -0.14200
C1481       C  0.74029872  0.06017894  0.39145356     0.07900
C1482       C  0.71754584  0.04949568  0.36572869    -0.14200
H1483       H  0.69191237  0.06174676  0.31906892     0.11900
H1484       H  0.76437120  0.13551407  0.35682843     0.11900
H1485       H  0.77670000  0.09876311  0.40663802     0.11900
H1486       H  0.70355218  0.02592992  0.36821790     0.11900
C1487       C  0.65070223  0.16780385  0.37473241    -0.14200
C1488       C  0.64775226  0.18332265  0.34261687     0.07900
C1489       C  0.62165846  0.20732008  0.33742556    -0.14200
C1490       C  0.59759545  0.21379498  0.36333859    -0.14200
C1491       C  0.59928628  0.19605611  0.39447712     0.07900
C1492       C  0.62671648  0.17390049  0.40017596    -0.14200
H1493       H  0.67083541  0.14962881  0.37967714     0.11900
H1494       H  0.61867376  0.21942538  0.31278298     0.11900
H1495       H  0.57664630  0.23098750  0.35831764     0.11900
H1496       H  0.62896790  0.16032548  0.42412604     0.11900
C1497       C  0.60752755  0.09618588  0.28705406    -0.14200
C1498       C  0.63470991  0.09937692  0.26408653     0.07900
C1499       C  0.63609372  0.07705426  0.23589624    -0.14200
C1500       C  0.61164561  0.05102053  0.23196582    -0.14200
C1501       C  0.58585021  0.04678669  0.25643909     0.07900
C1502       C  0.58375040  0.07012156  0.28350344    -0.14200
H1503       H  0.60484272  0.11358783  0.30832558     0.11900
H1504       H  0.65676915  0.07884104  0.21777288     0.11900
H1505       H  0.61375180  0.03342139  0.21077812     0.11900
H1506       H  0.56368418  0.06801996  0.30231137     0.11900
C1507       C  0.72663423  0.18783289  0.23880016    -0.17300
C1508       C  0.75327452  0.20786651  0.24776982    -0.32500
H1509       H  0.71891868  0.18644871  0.21206069     0.11700
H1510       H  0.76120151  0.20829055  0.27449563     0.12300
C1511       C  0.70282001  0.05238946  0.57378039    -0.14200
C1512       C  0.73092853  0.05876130  0.55272678     0.07900
C1513       C  0.75295429  0.08577176  0.56093105    -0.14200
C1514       C  0.74532433  0.10753030  0.58843773    -0.14200
C1515       C  0.71586460  0.10207334  0.60809584     0.07900
C1516       C  0.69554786  0.07359952  0.60121271    -0.14200
H1517       H  0.68590758  0.03123622  0.56856240     0.11900
H1518       H  0.77492469  0.09102786  0.54512178     0.11900
H1519       H  0.76127172  0.12947158  0.59315598     0.11900
H1520       H  0.67317089  0.06832071  0.61642531     0.11900
C1521       C  0.62739767  0.09050031  0.71060781    -0.14200
C1522       C  0.62567284  0.11022006  0.68071157     0.07900
C1523       C  0.59755026  0.10614857  0.65862595    -0.14200
C1524       C  0.57297479  0.08139565  0.66492761    -0.14200
C1525       C  0.57566749  0.06029356  0.69368818     0.07900
C1526       C  0.60249343  0.06579230  0.71710701    -0.14200
H1527       H  0.64884301  0.09295310  0.72804849     0.11900
H1528       H  0.59484744  0.12162327  0.63595575     0.11900
H1529       H  0.55225973  0.07813127  0.64669623     0.11900
H1530       H  0.60524406  0.04979852  0.73941622     0.11900
C1531       C  0.62344783  0.21526332  0.59856264    -0.14200
C1532       C  0.64830952  0.18981586  0.59615706     0.07900
C1533       C  0.65412217  0.17392776  0.56463571    -0.14200
C1534       C  0.63306970  0.18073036  0.53674700    -0.14200
C1535       C  0.60596003  0.20361736  0.53993958     0.07900
C1536       C  0.60226371  0.22220900  0.57039272    -0.14200
H1537       H  0.61865230  0.22767309  0.62280880     0.11900
H1538       H  0.67357083  0.15458637  0.56222404     0.11900
H1539       H  0.63642502  0.16631637  0.51335445     0.11900
H1540       H  0.58122289  0.23972836  0.57336177     0.11900
C1541       C  0.74963879  0.21140858  0.68991851    -0.17300
C1542       C  0.72366259  0.19225084  0.70114279    -0.32500
H1543       H  0.75438248  0.21117113  0.66252568     0.11700
H1544       H  0.71767360  0.19170192  0.72822279     0.12300
C1545       C  0.39184324  0.64528385  0.89833004    -0.14200
C1546       C  0.38729487  0.66553788  0.86923753     0.07900
C1547       C  0.40924761  0.69328903  0.86425894    -0.14200
C1548       C  0.43644740  0.69940909  0.88717676    -0.14200
C1549       C  0.44218046  0.67751300  0.91491420     0.07900
C1550       C  0.41910906  0.65097516  0.92067248    -0.14200
H1551       H  0.37493477  0.62412526  0.90317332     0.11900
H1552       H  0.40647622  0.70904632  0.84181295     0.11900
H1553       H  0.45385008  0.72015592  0.88236241     0.11900
H1554       H  0.42246238  0.63423304  0.94232610     0.11900
C1555       C  0.39846197  0.57490330  0.75294563    -0.14200
C1556       C  0.39975345  0.59627283  0.78179859     0.07900
C1557       C  0.42936848  0.59639229  0.80226974    -0.14200
C1558       C  0.45592810  0.57391357  0.79588141    -0.14200
C1559       C  0.45399016  0.55107056  0.76837432     0.07900
C1560       C  0.42557247  0.55248697  0.74617397    -0.14200
H1561       H  0.37587111  0.57421976  0.73686590     0.11900
H1562       H  0.43153605  0.61316739  0.82421050     0.11900
H1563       H  0.47771264  0.57379319  0.81308648     0.11900
H1564       H  0.42347795  0.53502776  0.72480110     0.11900
C1565       C  0.28197917  0.58118042  0.87641786    -0.14200
C1566       C  0.31161160  0.57840576  0.85650863     0.07900
C1567       C  0.33205732  0.54944345  0.85964239    -0.14200
C1568       C  0.32473176  0.52505783  0.88409833    -0.14200
C1569       C  0.29652322  0.52887209  0.90564150     0.07900
C1570       C  0.27438884  0.55640869  0.90082646    -0.14200
H1571       H  0.26582456  0.60334262  0.87449923     0.11900
H1572       H  0.35443514  0.54611148  0.84388117     0.11900
H1573       H  0.34183115  0.50368185  0.88695993     0.11900
H1574       H  0.25253454  0.55983710  0.91727331     0.11900
C1575       C  0.29624631  0.67617647  0.77559209    -0.17300
C1576       C  0.30541014  0.70250261  0.75583623    -0.32500
H1577       H  0.26918543  0.67041475  0.77771238     0.11700
H1578       H  0.33245038  0.70835780  0.75358632     0.12300
C1579       C  0.72609859  0.57472518  0.83794308    -0.14200
C1580       C  0.73699818  0.60832987  0.84194101     0.07900
C1581       C  0.75894698  0.61685534  0.86923436    -0.14200
C1582       C  0.76729923  0.59247745  0.89401535    -0.14200
C1583       C  0.75347473  0.55971524  0.89149549     0.07900
C1584       C  0.73410037  0.55068995  0.86260374    -0.14200
H1585       H  0.70909367  0.56773073  0.81710173     0.11900
H1586       H  0.76712145  0.64286621  0.87295534     0.11900
H1587       H  0.78201367  0.59988202  0.91636010     0.11900
H1588       H  0.72329413  0.52546273  0.86024288     0.11900
C1589       C  0.64658603  0.65620114  0.89019703    -0.14200
C1590       C  0.64633741  0.67783679  0.86184743     0.07900
C1591       C  0.62173242  0.70366325  0.85973437    -0.14200
C1592       C  0.59698628  0.70690864  0.88511299    -0.14200
C1593       C  0.59638506  0.68406695  0.91248942     0.07900
C1594       C  0.62164104  0.65907274  0.91511868    -0.14200
H1595       H  0.66580189  0.63665988  0.89291243     0.11900
H1596       H  0.62078657  0.72040746  0.83788504     0.11900
H1597       H  0.57754864  0.72626917  0.88264096     0.11900
H1598       H  0.62192249  0.64157157  0.93638922     0.11900
C1599       C  0.64643156  0.58714269  0.74541078    -0.14200
C1600       C  0.64240705  0.60901213  0.77357398     0.07900
C1601       C  0.61425720  0.60479305  0.79503069    -0.14200
C1602       C  0.59201734  0.57780754  0.79030118    -0.14200
C1603       C  0.59687803  0.55464493  0.76354434     0.07900
C1604       C  0.62349347  0.56006888  0.74024464    -0.14200
H1605       H  0.66812526  0.58991986  0.72865317     0.11900
H1606       H  0.61017845  0.62171556  0.81650683     0.11900
H1607       H  0.57120293  0.57465445  0.80811168     0.11900
H1608       H  0.62749844  0.54254332  0.71928151     0.11900
C1609       C  0.72226681  0.71034334  0.76459942    -0.17300
C1610       C  0.74415970  0.70443901  0.73911048    -0.32500
H1611       H  0.71638268  0.73639495  0.77151799     0.11700
H1612       H  0.74965971  0.67826500  0.73221899     0.12300
C1613       C  0.71923423  0.39622827  0.84214497    -0.14200
C1614       C  0.73886693  0.36655008  0.84292403     0.07900
C1615       C  0.76676703  0.36457789  0.86565486    -0.14200
C1616       C  0.77290925  0.39084978  0.88934844    -0.14200
C1617       C  0.75098223  0.41901167  0.89052872     0.07900
C1618       C  0.72503334  0.42200441  0.86582429    -0.14200
H1619       H  0.69815425  0.39877753  0.82426008     0.11900
H1620       H  0.78227531  0.34188208  0.86664697     0.11900
H1621       H  0.79316570  0.38811324  0.90810408     0.11900
H1622       H  0.70822220  0.44381477  0.86571293     0.11900
C1623       C  0.62002142  0.35025978  0.79244190    -0.14200
C1624       C  0.64958814  0.35008112  0.77246525     0.07900
C1625       C  0.65275874  0.37372971  0.74588187    -0.14200
C1626       C  0.62744889  0.39855257  0.74091302    -0.14200
C1627       C  0.59916163  0.40005823  0.76282766     0.07900
C1628       C  0.59531740  0.37513343  0.78793644    -0.14200
H1629       H  0.61681336  0.33204440  0.81284045     0.11900
H1630       H  0.67559205  0.37427462  0.73045850     0.11900
H1631       H  0.63090862  0.41761531  0.72139850     0.11900
H1632       H  0.57349851  0.37543957  0.80479516     0.11900
C1633       C  0.64167208  0.25090422  0.85794347    -0.14200
C1634       C  0.66207185  0.28022697  0.86045113     0.07900
C1635       C  0.65739700  0.30208560  0.88844859    -0.14200
C1636       C  0.63132063  0.29646584  0.91179429    -0.14200
C1637       C  0.60963299  0.26832118  0.90840303     0.07900
C1638       C  0.61572973  0.24487785  0.88192489    -0.14200
H1639       H  0.64459055  0.23363595  0.83658730     0.11900
H1640       H  0.67336179  0.32427344  0.89187394     0.11900
H1641       H  0.62776407  0.31457496  0.93234568     0.11900
H1642       H  0.59942835  0.22288924  0.87879823     0.11900
C1643       C  0.74843452  0.26378889  0.76566555    -0.17300
C1644       C  0.74918654  0.25894389  0.73136636    -0.32500
H1645       H  0.76582181  0.24967297  0.78196682     0.11700
H1646       H  0.73322226  0.27430897  0.71485439     0.12300
C1647       C  0.42783130  0.41056973  0.79647408    -0.14200
C1648       C  0.44987463  0.40702653  0.76858122     0.07900
C1649       C  0.44404068  0.38084327  0.74480871    -0.14200
C1650       C  0.41755871  0.35746445  0.75006124    -0.14200
C1651       C  0.39640919  0.36038384  0.77889066     0.07900
C1652       C  0.40124961  0.38776391  0.80135722    -0.14200
H1653       H  0.43130065  0.43098457  0.81476971     0.11900
H1654       H  0.46072336  0.37768449  0.72305706     0.11900
H1655       H  0.41458687  0.33639315  0.73249041     0.11900
H1656       H  0.38483311  0.39125433  0.82325082     0.11900
C1657       C  0.33586573  0.34317967  0.89291722    -0.14200
C1658       C  0.31569574  0.34196083  0.86299659     0.07900
C1659       C  0.28547316  0.36124783  0.86207090    -0.14200
C1660       C  0.27711151  0.38296928  0.88956102    -0.14200
C1661       C  0.29896698  0.38592893  0.91824283     0.07900
C1662       C  0.32788971  0.36504147  0.91985759    -0.14200
H1663       H  0.35863496  0.32780269  0.89526496     0.11900
H1664       H  0.26934374  0.36091120  0.83948602     0.11900
H1665       H  0.25466568  0.39885202  0.88750047     0.11900
H1666       H  0.34501720  0.36628073  0.94169089     0.11900
C1667       C  0.43577162  0.29318057  0.84675501    -0.14200
C1668       C  0.40677471  0.27226927  0.84531597     0.07900
C1669       C  0.40545402  0.24384313  0.86692305    -0.14200
C1670       C  0.43170473  0.23812643  0.89121402    -0.14200
C1671       C  0.45925104  0.26098279  0.89426968     0.07900
C1672       C  0.46137883  0.28784884  0.87100699    -0.14200
H1673       H  0.43796783  0.31487254  0.82999473     0.11900
H1674       H  0.38333831  0.22740372  0.86645287     0.11900
H1675       H  0.42940152  0.21719824  0.90890330     0.11900
H1676       H  0.48244782  0.30559469  0.87232646     0.11900
C1677       C  0.31138104  0.26694312  0.75402675    -0.17300
C1678       C  0.28934952  0.24174746  0.76111941    -0.32500
H1679       H  0.31480451  0.27400081  0.72750118     0.11700
H1680       H  0.28515683  0.23638955  0.78801307     0.12300
C1681       C  0.39801782  0.35913618  0.20833414    -0.14200
C1682       C  0.40129789  0.33771353  0.17967526     0.07900
C1683       C  0.42948180  0.34215034  0.15816653    -0.14200
C1684       C  0.45236718  0.36874019  0.16340638    -0.14200
C1685       C  0.44828645  0.39144750  0.19077459     0.07900
C1686       C  0.42154860  0.38576084  0.21397986    -0.14200
H1687       H  0.37642106  0.35642277  0.22519925     0.11900
H1688       H  0.43318061  0.32566301  0.13628133     0.11900
H1689       H  0.47306495  0.37193262  0.14548942     0.11900
H1690       H  0.41788000  0.40282638  0.23539554     0.11900
C1691       C  0.39695321  0.29018071  0.06326772    -0.14200
C1692       C  0.39472571  0.26795983  0.09110890     0.07900
C1693       C  0.41797237  0.24081830  0.09320940    -0.14200
C1694       C  0.44401979  0.23728114  0.06886344    -0.14200
C1695       C  0.44737145  0.26102600  0.04235183     0.07900
C1696       C  0.42306205  0.28697812  0.03944889    -0.14200
H1697       H  0.37887229  0.31072990  0.06023020     0.11900
H1698       H  0.41704768  0.22338411  0.11446635     0.11900
H1699       H  0.46244223  0.21698911  0.07168726     0.11900
H1700       H  0.42455105  0.30524578  0.01892614     0.11900
C1701       C  0.32378484  0.37756030  0.11641827    -0.14200
C1702       C  0.30812416  0.34573882  0.11308891     0.07900
C1703       C  0.28062754  0.34185193  0.09010616    -0.14200
C1704       C  0.27146158  0.36861199  0.06822667    -0.14200
C1705       C  0.28987463  0.39922116  0.06921640     0.07900
C1706       C  0.31487092  0.40395729  0.09465219    -0.14200
H1707       H  0.34450462  0.38142482  0.13454653     0.11900
H1708       H  0.26813839  0.31751125  0.08722732     0.11900
H1709       H  0.25213291  0.36439136  0.04871224     0.11900
H1710       H  0.32911951  0.42746351  0.09623222     0.11900
C1711       C  0.31386690  0.24078206  0.18847858    -0.17300
C1712       C  0.28973155  0.24822131  0.21175881    -0.32500
H1713       H  0.32042595  0.21433977  0.18424187     0.11700
H1714       H  0.28272211  0.27468501  0.21515728     0.12300
C1715       C  0.61110061  0.65665811  0.11378820    -0.14200
C1716       C  0.64138316  0.67558496  0.11457506     0.07900
C1717       C  0.64569160  0.70197669  0.09090991    -0.14200
C1718       C  0.62088659  0.70758271  0.06527111    -0.14200
C1719       C  0.59194280  0.68654291  0.06306185     0.07900
C1720       C  0.58683954  0.66189102  0.08824073    -0.14200
H1721       H  0.60697069  0.63648035  0.13201979     0.11900
H1722       H  0.66904114  0.71668962  0.09092092     0.11900
H1723       H  0.62530139  0.72675725  0.04606661     0.11900
H1724       H  0.56446139  0.64572447  0.08743185     0.11900
C1725       C  0.71053028  0.60679339  0.06971297    -0.14200
C1726       C  0.72971868  0.60519609  0.10014320     0.07900
C1727       C  0.75836248  0.58377561  0.10146553    -0.14200
C1728       C  0.76595664  0.56247448  0.07355169    -0.14200
C1729       C  0.74478553  0.56229277  0.04428927     0.07900
C1730       C  0.71772874  0.58541144  0.04233668    -0.14200
H1731       H  0.68898208  0.62382557  0.06746558     0.11900
H1732       H  0.77360469  0.58213006  0.12462340     0.11900
H1733       H  0.78700691  0.54482939  0.07562146     0.11900
H1734       H  0.70138687  0.58625823  0.01986337     0.11900
C1735       C  0.62484242  0.59329033  0.21107052    -0.14200
C1736       C  0.64818263  0.58846499  0.18428753     0.07900
C1737       C  0.64472979  0.55979066  0.16323805    -0.14200
C1738       C  0.61730211  0.53768276  0.16718184    -0.14200
C1739       C  0.59285326  0.54336885  0.19262459     0.07900
C1740       C  0.59743437  0.57067462  0.21537840    -0.14200
H1741       H  0.62679318  0.61536285  0.22749184     0.11900
H1742       H  0.66274625  0.55500300  0.14289476     0.11900
H1743       H  0.61491606  0.51624200  0.14993536     0.11900
H1744       H  0.57904021  0.57536337  0.23538705     0.11900
C1745       C  0.75685993  0.70650489  0.19663719    -0.17300
C1746       C  0.73458086  0.68222483  0.20587708    -0.32500
H1747       H  0.76207600  0.70971208  0.16955732     0.11700
H1748       H  0.72992759  0.67826920  0.23294882     0.12300
C1749       C  0.70905643  0.36806366  0.06284347    -0.14200
C1750       C  0.73110699  0.36532833  0.09114496     0.07900
C1751       C  0.76037561  0.38596930  0.09272732    -0.14200
C1752       C  0.76639171  0.41009592  0.06716371    -0.14200
C1753       C  0.74302908  0.41400694  0.04000954     0.07900
C1754       C  0.71474025  0.39231032  0.03778838    -0.14200
H1755       H  0.68696439  0.35170989  0.06021367     0.11900
H1756       H  0.77777696  0.38438992  0.11429561     0.11900
H1757       H  0.78842592  0.42658477  0.06935770     0.11900
H1758       H  0.69673428  0.39432230  0.01674713     0.11900
C1759       C  0.65364303  0.39892484  0.16436776    -0.14200
C1760       C  0.65795467  0.36828248  0.18196046     0.07900
C1761       C  0.63399644  0.35935829  0.20703535    -0.14200
C1762       C  0.60507963  0.37987282  0.21268769    -0.14200
C1763       C  0.59967064  0.40911664  0.19287780     0.07900
C1764       C  0.62477618  0.41884230  0.16947181    -0.14200
H1765       H  0.67180320  0.40657046  0.14509708     0.11900
H1766       H  0.63647442  0.33559490  0.22056778     0.11900
H1767       H  0.58610027  0.37191210  0.23097279     0.11900
H1768       H  0.62159956  0.44158727  0.15434836     0.11900
C1769       C  0.65137784  0.25647041  0.08393444    -0.14200
C1770       C  0.64895268  0.28580767  0.10438612     0.07900
C1771       C  0.61919296  0.30554875  0.10192374    -0.14200
C1772       C  0.59410596  0.29822927  0.07756284    -0.14200
C1773       C  0.59735177  0.27029302  0.05554310     0.07900
C1774       C  0.62561093  0.24863996  0.05977411    -0.14200
H1775       H  0.67389798  0.24063766  0.08532460     0.11900
H1776       H  0.61554166  0.32741612  0.11826224     0.11900
H1777       H  0.57231746  0.31500811  0.07547730     0.11900
H1778       H  0.62870080  0.22685581  0.04320218     0.11900
C1779       C  0.75391440  0.27898551  0.18354964    -0.17300
C1780       C  0.74586589  0.25602685  0.20755399    -0.32500
H1781       H  0.78046832  0.28117263  0.17607439     0.11700
H1782       H  0.71933334  0.25427482  0.21526447     0.12300
C1783       C  0.44887665  0.65323558  0.08031042    -0.14200
C1784       C  0.44835825  0.68120371  0.05835329     0.07900
C1785       C  0.42167675  0.70480543  0.06048877    -0.14200
C1786       C  0.39477469  0.69926379  0.08315815    -0.14200
C1787       C  0.39465641  0.67021147  0.10382841     0.07900
C1788       C  0.42242065  0.64792314  0.10296361    -0.14200
H1789       H  0.46955051  0.63503182  0.07953071     0.11900
H1790       H  0.42086615  0.72651741  0.04363786     0.11900
H1791       H  0.37356072  0.71681012  0.08356807     0.11900
H1792       H  0.42353080  0.62601001  0.11951371     0.11900
C1793       C  0.38474665  0.56082205  0.16034510    -0.14200
C1794       C  0.38278897  0.59043540  0.18044221     0.07900
C1795       C  0.40647847  0.59435648  0.20750389    -0.14200
C1796       C  0.43246567  0.57002859  0.21294306    -0.14200
C1797       C  0.43555693  0.54174871  0.19099226     0.07900
C1798       C  0.41096170  0.53728845  0.16512071    -0.14200
H1799       H  0.36645665  0.55618628  0.13997720     0.11900
H1800       H  0.40596529  0.61693141  0.22333325     0.11900
H1801       H  0.45106479  0.57416865  0.23314009     0.11900
H1802       H  0.41219605  0.51554198  0.14816737     0.11900
C1803       C  0.31074174  0.57541873  0.04290058    -0.14200
C1804       C  0.28715642  0.54985459  0.05063812     0.07900
C1805       C  0.26772413  0.55294414  0.08063640    -0.14200
C1806       C  0.27434870  0.57952159  0.10404857    -0.14200
C1807       C  0.30015343  0.60337248  0.09734361     0.07900
C1808       C  0.31692064  0.60193732  0.06578033    -0.14200
H1809       H  0.32570118  0.57396668  0.01975921     0.11900
H1810       H  0.24935489  0.53351353  0.08717172     0.11900
H1811       H  0.26126876  0.57993498  0.12830893     0.11900
H1812       H  0.33665351  0.62019968  0.05977874     0.11900
C1813       C  0.30472712  0.69642472  0.18981607    -0.17300
C1814       C  0.27970356  0.69114474  0.21248076    -0.32500
H1815       H  0.31346355  0.72236500  0.18649036     0.11700
H1816       H  0.27049365  0.66535317  0.21573047     0.12300
loop_ 
_geom_bond_atom_site_label_1 
_geom_bond_atom_site_label_2 
_geom_bond_distance 
_geom_bond_site_symmetry_2 
_ccdc_geom_bond_type 
C1            C2   1.551       .  S
C1            C7   1.538       .  S
C1            C5   1.560       .  S
C1         C1813   1.526       .  S
C2            H9   1.086       .  S
C2            C3   1.371       .  D
C3            C4   1.532       .  S
C3         C1807   1.489       .  S
C4            C8   1.527       .  S
C4            C6   1.534       .  S
C4           H10   1.108       .  S
C5           H11   1.085       .  S
C5            C6   1.379       .  D
C6         C1794   1.505       .  S
C7           H12   1.087       .  S
C7            C8   1.356       .  D
C8         C1787   1.472       .  S
C13          C14   1.542       .  S
C13          C19   1.552       .  S
C13          C17   1.551       .  S
C13        C1779   1.524       .  S
C14          H21   1.086       .  S
C14          C15   1.362       .  D
C15          C16   1.530       .  S
C15        C1750   1.484       .  S
C16          C20   1.534       .  S
C16          C18   1.531       .  S
C16          H22   1.107       .  S
C17          H23   1.086       .  S
C17          C18   1.372       .  D
C18        C1760   1.488       .  S
C19          H24   1.086       .  S
C19          C20   1.372       .  D
C20        C1770   1.495       .  S
C25          C26   1.548       .  S
C25          C31   1.548       .  S
C25          C29   1.546       .  S
C25        C1746   1.518       .  S
C26          H33   1.086       .  S
C26          C27   1.367       .  D
C27          C28   1.530       .  S
C27        C1716   1.482       .  S
C28          C32   1.534       .  S
C28          C30   1.531       .  S
C28          H34   1.110       .  S
C29          H35   1.086       .  S
C29          C30   1.365       .  D
C30        C1736   1.486       .  S
C31          H36   1.086       .  S
C31          C32   1.370       .  D
C32        C1726   1.487       .  S
C37          C38   1.555       .  S
C37          C43   1.546       .  S
C37          C41   1.545       .  S
C37        C1711   1.524       .  S
C38          H45   1.086       .  S
C38          C39   1.373       .  D
C39          C40   1.531       .  S
C39        C1682   1.493       .  S
C40          C44   1.534       .  S
C40          C42   1.533       .  S
C40          H46   1.109       .  S
C41          H47   1.086       .  S
C41          C42   1.365       .  D
C42        C1702   1.482       .  S
C43          H48   1.086       .  S
C43          C44   1.367       .  D
C44        C1692   1.492       .  S
O49         Cu57   2.053       .  S
O49          C59   1.282       .  A
O50         Cu57   2.050       .  S
O50          C60   1.282       .  A
O51         Cu57   2.038       .  S
O51          C61   1.281       .  A
O52         Cu57   2.049       .  S
O52          C62   1.282       .  A
O53         Cu58   2.000       .  S
O53          C62   1.278       .  A
O54         Cu58   1.995       .  S
O54          C61   1.277       .  A
O55         Cu58   1.998       .  S
O55          C60   1.277       .  A
O56         Cu58   2.019       .  S
O56          C59   1.280       .  A
Cu57        Cu58   2.368       .  S
C59        C1797   1.494       .  S
C60        C1763   1.483       .  S
C61        C1739   1.479       .  S
C62        C1685   1.488       .  S
C63          C64   1.555       .  S
C63          C69   1.555       .  S
C63          C67   1.542       .  S
C63        C1677   1.534       .  S
C64          H71   1.085       .  S
C64          C65   1.375       .  D
C65          C66   1.535       .  S
C65        C1658   1.501       .  S
C66          C70   1.532       .  S
C66          C68   1.531       .  S
C66          H72   1.108       .  S
C67          H73   1.086       .  S
C67          C68   1.362       .  D
C68        C1651   1.484       .  S
C69          H74   1.086       .  S
C69          C70   1.373       .  D
C70        C1668   1.493       .  S
C75          C76   1.554       .  S
C75          C81   1.548       .  S
C75          C79   1.545       .  S
C75        C1643   1.520       .  S
C76          H83   1.083       .  S
C76          C77   1.367       .  D
C77          C78   1.528       .  S
C77        C1624   1.480       .  S
C78          C82   1.532       .  S
C78          C80   1.530       .  S
C78          H84   1.109       .  S
C79          H85   1.086       .  S
C79          C80   1.364       .  D
C80        C1614   1.482       .  S
C81          H86   1.086       .  S
C81          C82   1.368       .  D
C82        C1634   1.492       .  S
C87          C88   1.537       .  S
C87          C93   1.547       .  S
C87          C91   1.544       .  S
C87        C1609   1.501       .  S
C88          H95   1.086       .  S
C88          C89   1.361       .  D
C89          C90   1.530       .  S
C89        C1590   1.475       .  S
C90          C94   1.530       .  S
C90          C92   1.528       .  S
C90          H96   1.110       .  S
C91          H97   1.086       .  S
C91          C92   1.363       .  D
C92        C1580   1.473       .  S
C93          H98   1.086       .  S
C93          C94   1.367       .  D
C94        C1600   1.479       .  S
C99         C100   1.540       .  S
C99         C105   1.551       .  S
C99         C103   1.547       .  S
C99        C1575   1.518       .  S
C100        H107   1.087       .  S
C100        C101   1.360       .  D
C101        C102   1.531       .  S
C101       C1566   1.480       .  S
C102        C106   1.532       .  S
C102        C104   1.532       .  S
C102        H108   1.109       .  S
C103        H109   1.086       .  S
C103        C104   1.369       .  D
C104       C1546   1.485       .  S
C105        H110   1.085       .  S
C105        C106   1.373       .  D
C106       C1556   1.488       .  S
O111       Cu119   2.000   1_554  S
O111        C121   1.277       .  A
O112       Cu119   2.005       .  S
O112        C122   1.278       .  A
O113       Cu119   1.977       .  S
O113        C123   1.274       .  A
O114       Cu119   1.983   1_554  S
O114        C124   1.275       .  A
O115       Cu120   2.039   1_554  S
O115        C124   1.280       .  A
O116       Cu120   2.028       .  S
O116        C123   1.280       .  A
O117       Cu120   2.050       .  S
O117        C122   1.282       .  A
O118       Cu120   2.052   1_554  S
O118        C121   1.282       .  A
Cu119      Cu120   2.366       .  S
C121       C1804   1.485       .  S
C122       C1661   1.491       .  S
C123       C1569   1.470       .  S
C124       C1705   1.476       .  S
O125       Cu133   1.983       .  S
O125        C135   1.275       .  A
O126       Cu133   1.966   1_554  S
O126        C136   1.274       .  A
O127       Cu133   1.996       .  S
O127        C137   1.277       .  A
O128       Cu133   1.985   1_554  S
O128        C138   1.276       .  A
O129       Cu134   2.044   1_554  S
O129        C138   1.281       .  A
O130       Cu134   2.033       .  S
O130        C137   1.280       .  A
O131       Cu134   2.016   1_554  S
O131        C136   1.278       .  A
O132       Cu134   2.011       .  S
O132        C135   1.278       .  A
Cu133      Cu134   2.375       .  S
C135       C1593   1.465       .  S
C136       C1784   1.464       .  S
C137       C1549   1.478       .  S
C138       C1719   1.477       .  S
O139       Cu147   2.023   1_554  S
O139        C149   1.279       .  A
O140       Cu147   2.034       .  S
O140        C150   1.279       .  A
O141       Cu147   2.035   1_554  S
O141        C151   1.280       .  A
O142       Cu147   2.041       .  S
O142        C152   1.281       .  A
O143       Cu148   1.982       .  S
O143        C152   1.275       .  A
O144       Cu148   1.995   1_554  S
O144        C151   1.277       .  A
O145       Cu148   1.978       .  S
O145        C150   1.275       .  A
O146       Cu148   1.991   1_554  S
O146        C149   1.277       .  A
Cu147      Cu148   2.374       .  S
C149       C1753   1.475       .  S
C150       C1583   1.467       .  S
C151       C1729   1.479       .  S
C152       C1617   1.476       .  S
O153       Cu161   2.042       .  S
O153        C163   1.281       .  A
O154       Cu161   2.040   1_554  S
O154        C164   1.281       .  A
O155       Cu161   2.052       .  S
O155        C165   1.282       .  A
O156       Cu161   2.049   1_554  S
O156        C166   1.282       .  A
O157       Cu162   1.995   1_554  S
O157        C166   1.277       .  A
O158       Cu162   1.995       .  S
O158        C165   1.277       .  A
O159       Cu162   1.999   1_554  S
O159        C164   1.277       .  A
O160       Cu162   2.000       .  S
O160        C163   1.277       .  A
Cu161      Cu162   2.365       .  S
C163       C1637   1.484       .  S
C164       C1695   1.484       .  S
C165       C1671   1.487       .  S
C166       C1773   1.486       .  S
O167       Cu175   1.996       .  S
O167        C177   1.277       .  A
O168       Cu175   1.990       .  S
O168        C178   1.276       .  A
O169       Cu175   1.982       .  S
O169        C179   1.275       .  A
O170       Cu175   1.982       .  S
O170        C180   1.276       .  A
O171       Cu176   2.032       .  S
O171        C180   1.279       .  A
O172       Cu176   2.032       .  S
O172        C179   1.280       .  A
O173       Cu176   2.040       .  S
O173        C178   1.281       .  A
O174       Cu176   2.033       .  S
O174        C177   1.279       .  A
Cu175      Cu176   2.372       .  S
C177       C1627   1.476       .  S
C178       C1559   1.481       .  S
C179       C1648   1.475       .  S
C180       C1603   1.473       .  S
C181        C182   1.546       .  S
C181        C187   1.539       .  S
C181        C185   1.540       .  S
C181       C1542   1.507       .  S
C182        H189   1.086       .  S
C182        C183   1.366       .  D
C183        C184   1.534       .  S
C183       C1515   1.483       .  S
C184        C188   1.538       .  S
C184        C186   1.532       .  S
C184        H190   1.109       .  S
C185        H191   1.086       .  S
C185        C186   1.360       .  D
C186       C1532   1.472       .  S
C187        H192   1.086       .  S
C187        C188   1.367       .  D
C188       C1522   1.488       .  S
C193        C194   1.551       .  S
C193        C199   1.543       .  S
C193        C197   1.551       .  S
C193       C1507   1.521       .  S
C194        H201   1.086       .  S
C194        C195   1.370       .  D
C195        C196   1.535       .  S
C195       C1498   1.494       .  S
C196        C200   1.531       .  S
C196        C198   1.532       .  S
C196        H202   1.110       .  S
C197        H203   1.086       .  S
C197        C198   1.370       .  D
C198       C1488   1.490       .  S
C199        H204   1.086       .  S
C199        C200   1.361       .  D
C200       C1478   1.474       .  S
C205        C206   1.544       .  S
C205        C211   1.552       .  S
C205        C209   1.550       .  S
C205       C1474   1.530       .  S
C206        H213   1.086       .  S
C206        C207   1.367       .  D
C207        C208   1.534       .  S
C207       C1444   1.484       .  S
C208        C212   1.531       .  S
C208        C210   1.533       .  S
C208        H214   1.110       .  S
C209        H215   1.086       .  S
C209        C210   1.370       .  D
C210       C1454   1.496       .  S
C211        H216   1.086       .  S
C211        C212   1.371       .  D
C212       C1467   1.487       .  S
C217        C218   1.551       .  S
C217        C223   1.542       .  S
C217        C221   1.542       .  S
C217       C1439   1.514       .  S
C218        H225   1.086       .  S
C218        C219   1.370       .  D
C219        C220   1.532       .  S
C219       C1430   1.489       .  S
C220        C224   1.532       .  S
C220        C222   1.531       .  S
C220        H226   1.107       .  S
C221        H227   1.086       .  S
C221        C222   1.364       .  D
C222       C1420   1.485       .  S
C223        H228   1.086       .  S
C223        C224   1.366       .  D
C224       C1413   1.481       .  S
O229       Cu237   2.019       .  S
O229        C239   1.278       .  A
O230       Cu237   2.025       .  S
O230        C240   1.279       .  A
O231       Cu237   2.054       .  S
O231        C241   1.282       .  A
O232       Cu237   2.048       .  S
O232        C242   1.283       .  A
O233       Cu238   2.004       .  S
O233        C242   1.277       .  A
O234       Cu238   1.999       .  S
O234        C241   1.277       .  A
O235       Cu238   1.976       .  S
O235        C240   1.275       .  A
O236       Cu238   1.991       .  S
O236        C239   1.277       .  A
Cu237      Cu238   2.371       .  S
C239       C1410   1.473       .  S
C240       C1535   1.466       .  S
C241       C1491   1.485       .  S
C242       C1457   1.490       .  S
C243        C244   1.555       .  S
C243        C249   1.552       .  S
C243        C247   1.540       .  S
C243       C1405   1.524       .  S
C244        H251   1.085       .  S
C244        C245   1.375       .  D
C245        C246   1.531       .  S
C245       C1396   1.493       .  S
C246        C250   1.533       .  S
C246        C248   1.530       .  S
C246        H252   1.109       .  S
C247        H253   1.086       .  S
C247        C248   1.359       .  D
C248       C1376   1.478       .  S
C249        H254   1.086       .  S
C249        C250   1.371       .  D
C250       C1386   1.494       .  S
C255        C256   1.554       .  S
C255        C261   1.542       .  S
C255        C259   1.546       .  S
C255       C1371   1.523       .  S
C256        H263   1.085       .  S
C256        C257   1.373       .  D
C257        C258   1.532       .  S
C257       C1352   1.494       .  S
C258        C262   1.534       .  S
C258        C260   1.533       .  S
C258        H264   1.110       .  S
C259        H265   1.086       .  S
C259        C260   1.368       .  D
C260       C1342   1.480       .  S
C261        H266   1.086       .  S
C261        C262   1.363       .  D
C262       C1362   1.488       .  S
C267        C268   1.547       .  S
C267        C273   1.545       .  S
C267        C271   1.547       .  S
C267       C1337   1.518       .  S
C268        H275   1.086       .  S
C268        C269   1.367       .  D
C269        C270   1.537       .  S
C269       C1318   1.495       .  S
C270        C274   1.534       .  S
C270        C272   1.532       .  S
C270        H276   1.109       .  S
C271        H277   1.086       .  S
C271        C272   1.367       .  D
C272       C1308   1.484       .  S
C273        H278   1.086       .  S
C273        C274   1.367       .  D
C274       C1328   1.484       .  S
C279        C280   1.543       .  S
C279        C285   1.544       .  S
C279        C283   1.539       .  S
C279       C1303   1.506       .  S
C280        H287   1.086       .  S
C280        C281   1.364       .  D
C281        C282   1.533       .  S
C281       C1294   1.479       .  S
C282        C286   1.532       .  S
C282        C284   1.534       .  S
C282        H288   1.108       .  S
C283        H289   1.086       .  S
C283        C284   1.364       .  D
C284       C1284   1.483       .  S
C285        H290   1.086       .  S
C285        C286   1.367       .  D
C286       C1274   1.481       .  S
O291       Cu299   2.029       .  S
O291        C301   1.280       .  A
O292       Cu299   2.034   1_545  S
O292        C302   1.280       .  A
O293       Cu299   2.038   1_545  S
O293        C303   1.281       .  A
O294       Cu299   2.034       .  S
O294        C304   1.281       .  A
O295       Cu300   1.970       .  S
O295        C304   1.274       .  A
O296       Cu300   1.981   1_545  S
O296        C303   1.275       .  A
O297       Cu300   1.973   1_545  S
O297        C302   1.275       .  A
O298       Cu300   1.975       .  S
O298        C301   1.274       .  A
Cu299      Cu300   2.373       .  S
C301       C1287   1.473       .  S
C302       C1481   1.469       .  S
C303       C1512   1.476       .  S
C304       C1379   1.472       .  S
O305       Cu313   1.989   1_545  S
O305        C315   1.276       .  A
O306       Cu313   1.988       .  S
O306        C316   1.276       .  A
O307       Cu313   1.986       .  S
O307        C317   1.276       .  A
O308       Cu313   1.988   1_545  S
O308        C318   1.275       .  A
O309       Cu314   2.041   1_545  S
O309        C318   1.282       .  A
O310       Cu314   2.046       .  S
O310        C317   1.282       .  A
O311       Cu314   2.031       .  S
O311        C316   1.279       .  A
O312       Cu314   2.032   1_545  S
O312        C315   1.280       .  A
Cu313      Cu314   2.367       .  S
C315       C1447   1.476       .  S
C316       C1277   1.475       .  S
C317       C1311   1.480       .  S
C318       C1525   1.481       .  S
O319       Cu327   1.994       .  S
O319        C329   1.276       .  A
O320       Cu327   1.996   1_545  S
O320        C330   1.277       .  A
O321       Cu327   1.992       .  S
O321        C331   1.277       .  A
O322       Cu327   1.989       .  S
O322        C332   1.276   1_565  A
O323       Cu328   2.026   1_545  S
O323        C332   1.280       .  A
O324       Cu328   2.033       .  S
O324        C331   1.280       .  A
O325       Cu328   2.044   1_545  S
O325        C330   1.281       .  A
O326       Cu328   2.033       .  S
O326        C329   1.281       .  A
Cu327      Cu328   2.367       .  S
C329       C1365   1.480       .  S
C330       C1464   1.482       .  S
C331       C1331   1.477       .  S
C332       C1423   1.475       .  S
O333       Cu341   2.049   1_545  S
O333        C343   1.282       .  A
O334       Cu341   2.062       .  S
O334        C344   1.284       .  A
O335       Cu341   2.047   1_545  S
O335        C345   1.281       .  A
O336       Cu341   2.041       .  S
O336        C346   1.280       .  A
O337       Cu342   2.009       .  S
O337        C346   1.278       .  A
O338       Cu342   1.994   1_545  S
O338        C345   1.277       .  A
O339       Cu342   2.001       .  S
O339        C344   1.277       .  A
O340       Cu342   1.994   1_545  S
O340        C343   1.277       .  A
Cu341      Cu342   2.368       .  S
C343       C1501   1.484       .  S
C344       C1355   1.491       .  S
C345       C1433   1.483       .  S
C346       C1399   1.484       .  S
O347       Cu355   1.990       .  S
O347        C357   1.276       .  A
O348       Cu355   1.992       .  S
O348        C358   1.276       .  A
O349       Cu355   1.990       .  S
O349        C359   1.277       .  A
O350       Cu355   1.988       .  S
O350        C360   1.276       .  A
O351       Cu356   2.024       .  S
O351        C360   1.279       .  A
O352       Cu356   2.027       .  S
O352        C359   1.279       .  A
O353       Cu356   2.059       .  S
O353        C358   1.283       .  A
O354       Cu356   2.053       .  S
O354        C357   1.283       .  A
Cu355      Cu356   2.367       .  S
C357       C1321   1.488       .  S
C358       C1389   1.488       .  S
C359       C1345   1.473       .  S
C360       C1297   1.470       .  S
C361        C362   1.548       .  S
C361        C367   1.553       .  S
C361        C365   1.538       .  S
C361       C1269   1.521       .  S
C362        H369   1.086       .  S
C362        C363   1.370       .  D
C363        C364   1.533       .  S
C363       C1260   1.488       .  S
C364        C368   1.528       .  S
C364        C366   1.531       .  S
C364        H370   1.109       .  S
C365        H371   1.087       .  S
C365        C366   1.362       .  D
C366       C1240   1.476       .  S
C367        H372   1.086       .  S
C367        C368   1.370       .  D
C368       C1253   1.485       .  S
C373        C374   1.551       .  S
C373        C379   1.545       .  S
C373        C377   1.560       .  S
C373       C1235   1.536       .  S
C374        H381   1.086       .  S
C374        C375   1.370       .  D
C375        C376   1.530       .  S
C375       C1226   1.485       .  S
C376        C380   1.529       .  S
C376        C378   1.534       .  S
C376        H382   1.109       .  S
C377        H383   1.085       .  S
C377        C378   1.379       .  D
C378       C1216   1.502       .  S
C379        H384   1.086       .  S
C379        C380   1.361       .  D
C380       C1206   1.486       .  S
C385        C386   1.548       .  S
C385        C391   1.555       .  S
C385        C389   1.548       .  S
C385       C1201   1.530       .  S
C386        H393   1.086       .  S
C386        C387   1.369       .  D
C387        C388   1.533       .  S
C387       C1172   1.489       .  S
C388        C392   1.532       .  S
C388        C390   1.531       .  S
C388        H394   1.109       .  S
C389        H395   1.086       .  S
C389        C390   1.366       .  D
C390       C1192   1.489       .  S
C391        H396   1.086       .  S
C391        C392   1.374       .  D
C392       C1182   1.494       .  S
C397        C398   1.535       .  S
C397        C403   1.549       .  S
C397        C401   1.549       .  S
C397       C1167   1.511       .  S
C398        H405   1.086       .  S
C398        C399   1.357       .  D
C399        C400   1.531       .  S
C399       C1148   1.476       .  S
C400        C404   1.531       .  S
C400        C402   1.532       .  S
C400        H406   1.109       .  S
C401        H407   1.086       .  S
C401        C402   1.372       .  D
C402       C1141   1.485       .  S
C403        H408   1.086       .  S
C403        C404   1.369       .  D
C404       C1158   1.484       .  S
O409       Cu417   2.048   1_655  S
O409        C419   1.282       .  A
O410       Cu417   2.045       .  S
O410        C420   1.282       .  A
O411       Cu417   2.030       .  S
O411        C421   1.279       .  A
O412       Cu417   2.032   1_655  S
O412        C422   1.280       .  A
O413       Cu418   1.996   1_655  S
O413        C422   1.277       .  A
O414       Cu418   1.992       .  S
O414        C421   1.277       .  A
O415       Cu418   1.991       .  S
O415        C420   1.276       .  A
O416       Cu418   1.988   1_655  S
O416        C419   1.276       .  A
Cu417      Cu418   2.367       .  S
C419       C1175   1.483       .  S
C420       C1118   1.486       .  S
C421       C1128   1.475       .  S
C422       C1138   1.479       .  S
O423       Cu431   2.029       .  S
O423        C433   1.280       .  A
O424       Cu431   2.023   1_655  S
O424        C434   1.280       .  A
O425       Cu431   2.021   1_655  S
O425        C435   1.279       .  A
O426       Cu431   2.023       .  S
O426        C436   1.279       .  A
O427       Cu432   1.986       .  S
O427        C436   1.276       .  A
O428       Cu432   1.985   1_655  S
O428        C435   1.276       .  A
O429       Cu432   1.981   1_655  S
O429        C434   1.275       .  A
O430       Cu432   1.988       .  S
O430        C433   1.276       .  A
Cu431      Cu432   2.369       .  S
C433       C1108   1.476       .  S
C434       C1151   1.471       .  S
C435       C1243   1.469       .  S
C436       C1098   1.471       .  S
O437       Cu445   2.049   1_655  S
O437        C447   1.282       .  A
O438       Cu445   2.049       .  S
O438        C448   1.282       .  A
O439       Cu445   2.043   1_655  S
O439        C449   1.281       .  A
O440       Cu445   2.043       .  S
O440        C450   1.281       .  A
O441       Cu446   1.995       .  S
O441        C450   1.276       .  A
O442       Cu446   1.994   1_655  S
O442        C449   1.277       .  A
O443       Cu446   2.005       .  S
O443        C448   1.278       .  A
O444       Cu446   1.987   1_655  S
O444        C447   1.276       .  A
Cu445      Cu446   2.369       .  S
C447       C1195   1.483       .  S
C448       C1078   1.490       .  S
C449       C1229   1.480       .  S
C450       C1088   1.482       .  S
O451       Cu459   1.983       .  S
O451        C461   1.275       .  A
O452       Cu459   1.999   1_655  S
O452        C462   1.277       .  A
O453       Cu459   2.007       .  S
O453        C463   1.278       .  A
O454       Cu459   2.009   1_655  S
O454        C464   1.278       .  A
O455       Cu460   2.060   1_655  S
O455        C464   1.283       .  A
O456       Cu460   2.055       .  S
O456        C463   1.283       .  A
O457       Cu460   2.028   1_655  S
O457        C462   1.279       .  A
O458       Cu460   2.039       .  S
O458        C461   1.280       .  A
Cu459      Cu460   2.369       .  S
C461       C1058   1.471       .  S
C462       C1263   1.480       .  S
C463       C1068   1.492       .  S
C464       C1219   1.494       .  S
O465       Cu473   2.041       .  S
O465        C475   1.281       .  A
O466       Cu473   2.043       .  S
O466        C476   1.280       .  A
O467       Cu473   2.037       .  S
O467        C477   1.281       .  A
O468       Cu473   2.042       .  S
O468        C478   1.281       .  A
O469       Cu474   1.990       .  S
O469        C478   1.276       .  A
O470       Cu474   1.987       .  S
O470        C477   1.276       .  A
O471       Cu474   2.015       .  S
O471        C476   1.279       .  A
O472       Cu474   2.000       .  S
O472        C475   1.277       .  A
Cu473      Cu474   2.370       .  S
C475       C1250   1.480       .  S
C476       C1185   1.487       .  S
C477       C1209   1.476       .  S
C478       C1161   1.481       .  S
C479        C480   1.540       .  S
C479        C485   1.555       .  S
C479        C483   1.545       .  S
C479       C1054   1.521       .  S
C480        H487   1.086       .  S
C480        C481   1.362       .  D
C481        C482   1.532       .  S
C481       C1044   1.475       .  S
C482        C486   1.536       .  S
C482        C484   1.531       .  S
C482        H488   1.110       .  S
C483        H489   1.086       .  S
C483        C484   1.366       .  D
C484       C1111   1.482       .  S
C485        H490   1.086       .  S
C485        C486   1.375       .  D
C486       C1071   1.498       .  S
C491        C492   1.542       .  S
C491        C497   1.544       .  S
C491        C495   1.547       .  S
C491       C1039   1.513       .  S
C492        H499   1.086       .  S
C492        C493   1.364       .  D
C493        C494   1.533       .  S
C493       C1030   1.484       .  S
C494        C498   1.534       .  S
C494        C496   1.534       .  S
C494        H500   1.108       .  S
C495        H501   1.086       .  S
C495        C496   1.369       .  D
C496       C1091   1.490       .  S
C497        H502   1.086       .  S
C497        C498   1.367       .  D
C498       C1131   1.483       .  S
C503        C504   1.547       .  S
C503        C509   1.545       .  S
C503        C507   1.549       .  S
C503       C1025   1.522       .  S
C504        H511   1.086       .  S
C504        C505   1.367       .  D
C505        C506   1.531       .  S
C505       C1016   1.485       .  S
C506        C510   1.531       .  S
C506        C508   1.535       .  S
C506        H512   1.108       .  S
C507        H513   1.085       .  S
C507        C508   1.370       .  D
C508       C1121   1.495       .  S
C509        H514   1.086       .  S
C509        C510   1.366       .  D
C510       C1101   1.479       .  S
C515        C516   1.544       .  S
C515        C521   1.552       .  S
C515        C519   1.553       .  S
C515       C1011   1.531       .  S
C516        H523   1.086       .  S
C516        C517   1.364       .  D
C517        C518   1.530       .  S
C517       C1061   1.476       .  S
C518        C522   1.535       .  S
C518        C520   1.536       .  S
C518        H524   1.109       .  S
C519        H525   1.086       .  S
C519        C520   1.374       .  D
C520       C1081   1.499       .  S
C521        H526   1.085       .  S
C521        C522   1.370       .  D
C522       C1002   1.497       .  S
O527       Cu535   1.999       .  S
O527        C537   1.277       .  A
O528       Cu535   2.006       .  S
O528        C538   1.278       .  A
O529       Cu535   1.979       .  S
O529        C539   1.274       .  A
O530       Cu535   1.976       .  S
O530        C540   1.275       .  A
O531       Cu536   2.030       .  S
O531        C540   1.280       .  A
O532       Cu536   2.037       .  S
O532        C539   1.280       .  A
O533       Cu536   2.042       .  S
O533        C538   1.281       .  A
O534       Cu536   2.041       .  S
O534        C537   1.281       .  A
Cu535      Cu536   2.366       .  S
C537       C1019   1.481       .  S
C538       C1005   1.487       .  S
C539       C1047   1.472       .  S
C540       C1033   1.475       .  S
C541        C998   1.546       .  S
C541       C1012   1.545       .  S
C541       C1440   1.531       .  S
C541       C1712   1.536       .  S
C542        C993   1.542       .  S
C542       C1236   1.550       .  S
C542       C1508   1.535       .  S
C542       C1780   1.538       .  S
C543        C989   1.537       .  S
C543       C1040   1.529       .  S
C543       C1372   1.541       .  S
C543       C1814   1.541       .  S
C544        C985   1.535       .  S
C544       C1053   1.538       .  S
C544       C1473   1.546       .  S
C544       C1678   1.548       .  S
C545        C981   1.539       .  S
C545       C1270   1.538       .  S
C545       C1541   1.523       .  S
C545       C1644   1.536       .  S
C546        C978   1.543       .  S
C546       C1202   1.544       .  S
C546       C1406   1.539       .  S
C546       C1745   1.534       .  S
C547        C973   1.546       .  S
C547       C1026   1.540       .  S
C547       C1338   1.533       .  S
C547       C1576   1.538       .  S
C548        C549   1.537       .  S
C548        C554   1.556       .  S
C548        C552   1.554       .  S
C548        C997   1.531       .  S
C549        H556   1.086       .  S
C549        C550   1.361       .  D
C550        C551   1.534       .  S
C550        C964   1.485       .  S
C551        C555   1.532       .  S
C551        C553   1.531       .  S
C551        H557   1.109       .  S
C552        H558   1.085       .  S
C552        C553   1.373       .  D
C553        C957   1.490       .  S
C554        H559   1.085       .  S
C554        C555   1.375       .  D
C555        C944   1.495       .  S
C560        C561   1.539       .  S
C560        C566   1.541       .  S
C560        C564   1.552       .  S
C560        C986   1.514       .  S
C561        H568   1.086       .  S
C561        C562   1.361       .  D
C562        C563   1.532       .  S
C562        C934   1.473       .  S
C563        C567   1.535       .  S
C563        C565   1.533       .  S
C563        H569   1.109       .  S
C564        H570   1.085       .  S
C564        C565   1.372       .  D
C565        C924   1.491       .  S
C566        H571   1.085       .  S
C566        C567   1.366       .  D
C567        C914   1.489       .  S
C572        C573   1.550       .  S
C572        C578   1.542       .  S
C572        C576   1.554       .  S
C572        C994   1.528       .  S
C573        H580   1.086       .  S
C573        C574   1.372       .  D
C574        C575   1.534       .  S
C574        C884   1.491       .  S
C575        C579   1.532       .  S
C575        C577   1.530       .  S
C575        H581   1.109       .  S
C576        H582   1.085       .  S
C576        C577   1.374       .  D
C577        C904   1.489       .  S
C578        H583   1.086       .  S
C578        C579   1.361       .  D
C579        C897   1.487       .  S
C584        C585   1.551       .  S
C584        C590   1.545       .  S
C584        C588   1.544       .  S
C584        C990   1.527       .  S
C585        H592   1.086       .  S
C585        C586   1.372       .  D
C586        C587   1.533       .  S
C586        C864   1.489       .  S
C587        C591   1.528       .  S
C587        C589   1.539       .  S
C587        H593   1.109       .  S
C588        H594   1.085       .  S
C588        C589   1.371       .  D
C589        C874   1.494       .  S
C590        H595   1.086       .  S
C590        C591   1.362       .  D
C591        C854   1.474       .  S
C596        C597   1.552       .  S
C596        C602   1.551       .  S
C596        C600   1.550       .  S
C596        C977   1.530       .  S
C597        H604   1.086       .  S
C597        C598   1.368       .  D
C598        C599   1.529       .  S
C598        C834   1.491       .  S
C599        C603   1.531       .  S
C599        C601   1.528       .  S
C599        H605   1.109       .  S
C600        H606   1.086       .  S
C600        C601   1.370       .  D
C601        C847   1.485       .  S
C602        H607   1.086       .  S
C602        C603   1.372       .  D
C603        C824   1.489       .  S
O608       Cu616   2.039       .  S
O608        C618   1.280       .  A
O609       Cu616   2.031   1_645  S
O609        C619   1.280       .  A
O610       Cu616   2.035   1_655  S
O610        C620   1.280       .  A
O611       Cu616   2.049   1_545  S
O611        C621   1.282       .  A
O612       Cu617   1.998   1_545  S
O612        C621   1.277       .  A
O613       Cu617   2.006   1_655  S
O613        C620   1.278       .  A
O614       Cu617   1.992   1_645  S
O614        C619   1.276       .  A
O615       Cu617   1.997       .  S
O615        C618   1.276       .  A
Cu616      Cu617   2.371       .  S
C618        C867   1.476       .  S
C619        C894   1.479       .  S
C620        C827   1.482       .  S
C621        C954   1.483       .  S
C622        C623   1.545       .  S
C622        C628   1.553       .  S
C622        C626   1.547       .  S
C622        C974   1.526       .  S
C623        H630   1.086       .  S
C623        C624   1.365       .  D
C624        C625   1.533       .  S
C624        C804   1.490       .  S
C625        C629   1.531       .  S
C625        C627   1.533       .  S
C625        H631   1.109       .  S
C626        H632   1.086       .  S
C626        C627   1.368       .  D
C627        C794   1.486       .  S
C628        H633   1.085       .  S
C628        C629   1.373       .  D
C629        C814   1.490       .  S
O634       Cu642   2.032   1_554  S
O634        C644   1.279       .  A
O635       Cu642   2.028   1_545  S
O635        C645   1.280       .  A
O636       Cu642   2.047   1_544  S
O636        C646   1.281       .  A
O637       Cu642   2.043       .  S
O637        C647   1.281       .  A
O638       Cu643   1.999       .  S
O638        C647   1.278       .  A
O639       Cu643   2.009   1_544  S
O639        C646   1.278       .  A
O640       Cu643   1.993       .  S
O640        C645   1.276   1_565  A
O641       Cu643   1.995   1_554  S
O641        C644   1.275       .  A
Cu642      Cu643   2.369       .  S
C644        C857   1.468       .  S
C645        C917   1.479       .  S
C646        C947   1.488       .  S
C647        C797   1.483       .  S
C648        C649   1.541       .  S
C648        C654   1.565       .  S
C648        C652   1.539       .  S
C648        C982   1.524       .  S
C649        H656   1.087       .  S
C649        C650   1.364       .  D
C650        C651   1.532       .  S
C650        C764   1.480       .  S
C651        C655   1.528       .  S
C651        C653   1.529       .  S
C651        H657   1.110       .  S
C652        H658   1.086       .  S
C652        C653   1.361       .  D
C653        C784   1.477       .  S
C654        H659   1.083       .  S
C654        C655   1.374       .  D
C655        C774   1.492       .  S
O660       Cu668   2.045       .  S
O660        C670   1.281       .  A
O661       Cu668   2.047   1_654  S
O661        C671   1.281       .  A
O662       Cu668   2.029   1_554  S
O662        C672   1.280       .  A
O663       Cu668   2.032   1_655  S
O663        C673   1.280       .  A
O664       Cu669   1.975   1_655  S
O664        C673   1.274       .  A
O665       Cu669   1.976   1_554  S
O665        C672   1.274       .  A
O666       Cu669   1.999   1_654  S
O666        C671   1.277       .  A
O667       Cu669   1.998       .  S
O667        C670   1.277       .  A
Cu668      Cu669   2.367       .  S
C670        C927   1.485       .  S
C671        C887   1.484       .  S
C672        C967   1.474       .  S
C673        C767   1.472       .  S
C674        C675   1.537       .  S
C674        C680   1.553       .  S
C674        C678   1.554       .  S
C674        C759   1.520       .  S
C675        H682   1.087       .  S
C675        C676   1.358       .  D
C676        C677   1.527       .  S
C676        C750   1.472       .  S
C677        C681   1.530       .  S
C677        C679   1.529       .  S
C677        H683   1.108       .  S
C678        H684   1.086       .  S
C678        C679   1.373       .  D
C679        C740   1.490       .  S
C680        H685   1.086       .  S
C680        C681   1.373       .  D
C681        C733   1.493       .  S
O686       Cu694   2.035   1_554  S
O686        C696   1.281       .  A
O687       Cu694   2.038   1_655  S
O687        C697   1.280       .  A
O688       Cu694   2.037       .  S
O688        C698   1.280       .  A
O689       Cu694   2.031   1_654  S
O689        C699   1.279       .  A
O690       Cu695   2.003   1_654  S
O690        C699   1.278       .  A
O691       Cu695   2.008       .  S
O691        C698   1.279       .  A
O692       Cu695   2.004   1_655  S
O692        C697   1.278       .  A
O693       Cu695   2.001   1_554  S
O693        C696   1.277       .  A
Cu694      Cu695   2.366       .  S
C696        C877   1.482       .  S
C697        C743   1.484       .  S
C698        C817   1.485       .  S
C699        C844   1.479       .  S
O700       Cu708   2.040       .  S
O700        C710   1.281   1_556  A
O701       Cu708   2.040   1_545  S
O701        C711   1.281       .  A
O702       Cu708   2.040       .  S
O702        C712   1.281       .  A
O703       Cu708   2.040   1_545  S
O703        C713   1.280   1_556  A
O704       Cu709   2.010   1_544  S
O704        C713   1.279       .  A
O705       Cu709   2.011       .  S
O705        C712   1.279       .  A
O706       Cu709   2.007   1_545  S
O706        C711   1.278       .  A
O707       Cu709   2.004       .  S
O707        C710   1.278   1_556  A
Cu708      Cu709   2.365       .  S
C710        C837   1.484       .  S
C711        C777   1.486       .  S
C712        C730   1.488       .  S
C713        C907   1.485       .  S
O714       Cu722   2.036   1_645  S
O714        C724   1.281       .  A
O715       Cu722   2.032       .  S
O715        C725   1.281       .  A
O716       Cu722   2.010   1_655  S
O716        C726   1.277       .  A
O717       Cu722   2.013   1_545  S
O717        C727   1.277       .  A
O718       Cu723   1.983   1_545  S
O718        C727   1.276       .  A
O719       Cu723   1.977   1_655  S
O719        C726   1.275       .  A
O720       Cu723   1.990       .  S
O720        C725   1.276       .  A
O721       Cu723   1.986   1_645  S
O721        C724   1.275       .  A
Cu722      Cu723   2.370       .  S
C724        C787   1.473       .  S
C725        C807   1.480       .  S
C726        C753   1.464       .  S
C727        C937   1.466       .  S
C728        C760   1.540       .  S
C728       C1168   1.530       .  S
C728       C1304   1.524       .  S
C728       C1610   1.522       .  S
C729        C730   1.410       .  A
C729        C734   1.410       .  A
C729        H735   1.082       .  S
C730        C731   1.403       .  A
C731        C732   1.395       .  A
C731        H736   1.084       .  S
C732        C733   1.407       .  A
C732        H737   1.083       .  S
C733        C734   1.406       .  A
C734        H738   1.083       .  S
C739        C740   1.406       .  A
C739        C744   1.394       .  A
C739        H745   1.083       .  S
C740        C741   1.406       .  A
C741        C742   1.409       .  A
C741        H746   1.083       .  S
C742        C743   1.408       .  A
C742        H747   1.082       .  S
C743        C744   1.403       .  A
C744        H748   1.084       .  S
C749        C750   1.401       .  A
C749        C754   1.387       .  A
C749        H755   1.083       .  S
C750        C751   1.405       .  A
C751        C752   1.398       .  A
C751        H756   1.082       .  S
C752        C753   1.403       .  A
C752        H757   1.083       .  S
C753        C754   1.401       .  A
C754        H758   1.084       .  S
C759        H761   1.085       .  S
C759        C760   1.342       .  D
C760        H762   1.087       .  S
C763        C764   1.407       .  A
C763        C768   1.404       .  A
C763        H769   1.082       .  S
C764        C765   1.401       .  A
C765        C766   1.389       .  A
C765        H770   1.083       .  S
C766        C767   1.403       .  A
C766        H771   1.084       .  S
C767        C768   1.404       .  A
C768        H772   1.083       .  S
C773        C774   1.406       .  A
C773        C778   1.410       .  A
C773        H779   1.083       .  S
C774        C775   1.406       .  A
C775        C776   1.396       .  A
C775        H780   1.083       .  S
C776        C777   1.403       .  A
C776        H781   1.084       .  S
C777        C778   1.409       .  A
C778        H782   1.082       .  S
C783        C784   1.401       .  A
C783        C788   1.392       .  A
C783        H789   1.085       .  S
C784        C785   1.405       .  A
C785        C786   1.403       .  A
C785        H790   1.083       .  S
C786        C787   1.405       .  A
C786        H791   1.084       .  S
C787        C788   1.403       .  A
C788        H792   1.082       .  S
C793        C794   1.403       .  A
C793        C798   1.393       .  A
C793        H799   1.083       .  S
C794        C795   1.406       .  A
C795        C796   1.409       .  A
C795        H800   1.084       .  S
C796        C797   1.409       .  A
C796        H801   1.082       .  S
C797        C798   1.403       .  A
C798        H802   1.084       .  S
C803        C804   1.408       .  A
C803        C808   1.403       .  A
C803        H809   1.083       .  S
C804        C805   1.405       .  A
C805        C806   1.395       .  A
C805        H810   1.081       .  S
C806        C807   1.404       .  A
C806        H811   1.084       .  S
C807        C808   1.405       .  A
C808        H812   1.082       .  S
C813        C814   1.405       .  A
C813        C818   1.394       .  A
C813        H819   1.083       .  S
C814        C815   1.406       .  A
C815        C816   1.411       .  A
C815        H820   1.083       .  S
C816        C817   1.410       .  A
C816        H821   1.083       .  S
C817        C818   1.402       .  A
C818        H822   1.083       .  S
C823        C824   1.407       .  A
C823        C828   1.410       .  A
C823        H829   1.082       .  S
C824        C825   1.405       .  A
C825        C826   1.393       .  A
C825        H830   1.084       .  S
C826        C827   1.402       .  A
C826        H831   1.083       .  S
C827        C828   1.408       .  A
C828        H832   1.084       .  S
C833        C834   1.405       .  A
C833        C838   1.395       .  A
C833        H839   1.084       .  S
C834        C835   1.407       .  A
C835        C836   1.409       .  A
C835        H840   1.082       .  S
C836        C837   1.408       .  A
C836        H841   1.084       .  S
C837        C838   1.403       .  A
C838        H842   1.083       .  S
C843        C844   1.401       .  A
C843        C848   1.393       .  A
C843        H849   1.084       .  S
C844        C845   1.408       .  A
C845        C846   1.408       .  A
C845        H850   1.082       .  S
C846        C847   1.405       .  A
C846        H851   1.083       .  S
C847        C848   1.405       .  A
C848        H852   1.084       .  S
C853        C854   1.403       .  A
C853        C858   1.400       .  A
C853        H859   1.083       .  S
C854        C855   1.401       .  A
C855        C856   1.400       .  A
C855        H860   1.083       .  S
C856        C857   1.404       .  A
C856        H861   1.084       .  S
C857        C858   1.402       .  A
C858        H862   1.083       .  S
C863        C864   1.408       .  A
C863        C868   1.410       .  A
C863        H869   1.083       .  S
C864        C865   1.403       .  A
C865        C866   1.393       .  A
C865        H870   1.081       .  S
C866        C867   1.400       .  A
C866        H871   1.084       .  S
C867        C868   1.407       .  A
C868        H872   1.083       .  S
C873        C874   1.406       .  A
C873        C878   1.395       .  A
C873        H879   1.082       .  S
C874        C875   1.408       .  A
C875        C876   1.405       .  A
C875        H880   1.082       .  S
C876        C877   1.406       .  A
C876        H881   1.083       .  S
C877        C878   1.403       .  A
C878        H882   1.083       .  S
C883        C884   1.405       .  A
C883        C888   1.394       .  A
C883        H889   1.084       .  S
C884        C885   1.407       .  A
C885        C886   1.410       .  A
C885        H890   1.082       .  S
C886        C887   1.408       .  A
C886        H891   1.084       .  S
C887        C888   1.403       .  A
C888        H892   1.083       .  S
C893        C894   1.404       .  A
C893        C898   1.393       .  A
C893        H899   1.083       .  S
C894        C895   1.405       .  A
C895        C896   1.403       .  A
C895        H900   1.083       .  S
C896        C897   1.408       .  A
C896        H901   1.083       .  S
C897        C898   1.403       .  A
C898        H902   1.082       .  S
C903        C904   1.407       .  A
C903        C908   1.411       .  A
C903        H909   1.083       .  S
C904        C905   1.405       .  A
C905        C906   1.395       .  A
C905        H910   1.084       .  S
C906        C907   1.402       .  A
C906        H911   1.083       .  S
C907        C908   1.409       .  A
C908        H912   1.083       .  S
C913        C914   1.405       .  A
C913        C918   1.395       .  A
C913        H919   1.082       .  S
C914        C915   1.408       .  A
C915        C916   1.403       .  A
C915        H920   1.082       .  S
C916        C917   1.405       .  A
C916        H921   1.083       .  S
C917        C918   1.404       .  A
C918        H922   1.084       .  S
C923        C924   1.407       .  A
C923        C928   1.411       .  A
C923        H929   1.083       .  S
C924        C925   1.404       .  A
C925        C926   1.393       .  A
C925        H930   1.083       .  S
C926        C927   1.402       .  A
C926        H931   1.084       .  S
C927        C928   1.409       .  A
C928        H932   1.083       .  S
C933        C934   1.401       .  A
C933        C938   1.389       .  A
C933        H939   1.083       .  S
C934        C935   1.404       .  A
C935        C936   1.401       .  A
C935        H940   1.083       .  S
C936        C937   1.405       .  A
C936        H941   1.084       .  S
C937        C938   1.401       .  A
C938        H942   1.084       .  S
C943        C944   1.405       .  A
C943        C948   1.396       .  A
C943        H949   1.083       .  S
C944        C945   1.409       .  A
C945        C946   1.413       .  A
C945        H950   1.083       .  S
C946        C947   1.409       .  A
C946        H951   1.083       .  S
C947        C948   1.403       .  A
C948        H952   1.084       .  S
C953        C954   1.402       .  A
C953        C958   1.395       .  A
C953        H959   1.084       .  S
C954        C955   1.408       .  A
C955        C956   1.411       .  A
C955        H960   1.083       .  S
C956        C957   1.407       .  A
C956        H961   1.083       .  S
C957        C958   1.405       .  A
C958        H962   1.083       .  S
C963        C964   1.409       .  A
C963        C968   1.401       .  A
C963        H969   1.082       .  S
C964        C965   1.403       .  A
C965        C966   1.391       .  A
C965        H970   1.083       .  S
C966        C967   1.404       .  A
C966        H971   1.083       .  S
C967        C968   1.404       .  A
C968        H972   1.084       .  S
C973        H975   1.087       .  S
C973        C974   1.351       .  D
C974        H976   1.082       .  S
C977        H979   1.087       .  S
C977        C978   1.355       .  D
C978        H980   1.087       .  S
C981        H983   1.082       .  S
C981        C982   1.344       .  D
C982        H984   1.085       .  S
C985        H987   1.087       .  S
C985        C986   1.347       .  D
C986        H988   1.086       .  S
C989        H991   1.087       .  S
C989        C990   1.351       .  D
C990        H992   1.086       .  S
C993        H995   1.087       .  S
C993        C994   1.347       .  D
C994        H996   1.087       .  S
C997        H999   1.087       .  S
C997        C998   1.343       .  D
C998       H1000   1.088       .  S
C1001      C1002   1.406       .  A
C1001      C1006   1.397       .  A
C1001      H1007   1.083       .  S
C1002      C1003   1.408       .  A
C1003      C1004   1.409       .  A
C1003      H1008   1.083       .  S
C1004      C1005   1.408       .  A
C1004      H1009   1.083       .  S
C1005      C1006   1.404       .  A
C1006      H1010   1.083       .  S
C1011      H1013   1.086       .  S
C1011      C1012   1.357       .  D
C1012      H1014   1.086       .  S
C1015      C1016   1.408       .  A
C1015      C1020   1.409       .  A
C1015      H1021   1.083       .  S
C1016      C1017   1.402       .  A
C1017      C1018   1.394       .  A
C1017      H1022   1.083       .  S
C1018      C1019   1.403       .  A
C1018      H1023   1.083       .  S
C1019      C1020   1.407       .  A
C1020      H1024   1.083       .  S
C1025      H1027   1.081       .  S
C1025      C1026   1.351       .  D
C1026      H1028   1.087       .  S
C1029      C1030   1.403       .  A
C1029      C1034   1.389       .  A
C1029      H1035   1.082       .  S
C1030      C1031   1.407       .  A
C1031      C1032   1.404       .  A
C1031      H1036   1.083       .  S
C1032      C1033   1.405       .  A
C1032      H1037   1.083       .  S
C1033      C1034   1.403       .  A
C1034      H1038   1.084       .  S
C1039      H1041   1.087       .  S
C1039      C1040   1.346       .  D
C1040      H1042   1.087       .  S
C1043      C1044   1.404       .  A
C1043      C1048   1.405       .  A
C1043      H1049   1.084       .  S
C1044      C1045   1.401       .  A
C1045      C1046   1.391       .  A
C1045      H1050   1.084       .  S
C1046      C1047   1.403       .  A
C1046      H1051   1.084       .  S
C1047      C1048   1.406       .  A
C1048      H1052   1.083       .  S
C1053      H1055   1.087       .  S
C1053      C1054   1.349       .  D
C1054      H1056   1.087       .  S
C1057      C1058   1.401       .  A
C1057      C1062   1.391       .  A
C1057      H1063   1.084       .  S
C1058      C1059   1.406       .  A
C1059      C1060   1.407       .  A
C1059      H1064   1.083       .  S
C1060      C1061   1.405       .  A
C1060      H1065   1.083       .  S
C1061      C1062   1.401       .  A
C1062      H1066   1.084       .  S
C1067      C1068   1.410       .  A
C1067      C1072   1.413       .  A
C1067      H1073   1.084       .  S
C1068      C1069   1.404       .  A
C1069      C1070   1.397       .  A
C1069      H1074   1.083       .  S
C1070      C1071   1.405       .  A
C1070      H1075   1.084       .  S
C1071      C1072   1.409       .  A
C1072      H1076   1.082       .  S
C1077      C1078   1.409       .  A
C1077      C1082   1.413       .  A
C1077      H1083   1.083       .  S
C1078      C1079   1.404       .  A
C1079      C1080   1.395       .  A
C1079      H1084   1.083       .  S
C1080      C1081   1.406       .  A
C1080      H1085   1.083       .  S
C1081      C1082   1.409       .  A
C1082      H1086   1.082       .  S
C1087      C1088   1.403       .  A
C1087      C1092   1.394       .  A
C1087      H1093   1.083       .  S
C1088      C1089   1.407       .  A
C1089      C1090   1.408       .  A
C1089      H1094   1.083       .  S
C1090      C1091   1.408       .  A
C1090      H1095   1.083       .  S
C1091      C1092   1.404       .  A
C1092      H1096   1.083       .  S
C1097      C1098   1.401       .  A
C1097      C1102   1.390       .  A
C1097      H1103   1.083       .  S
C1098      C1099   1.406       .  A
C1099      C1100   1.403       .  A
C1099      H1104   1.083       .  S
C1100      C1101   1.405       .  A
C1100      H1105   1.083       .  S
C1101      C1102   1.403       .  A
C1102      H1106   1.084       .  S
C1107      C1108   1.405       .  A
C1107      C1112   1.404       .  A
C1107      H1113   1.083       .  S
C1108      C1109   1.404       .  A
C1109      C1110   1.393       .  A
C1109      H1114   1.083       .  S
C1110      C1111   1.403       .  A
C1110      H1115   1.084       .  S
C1111      C1112   1.406       .  A
C1112      H1116   1.083       .  S
C1117      C1118   1.408       .  A
C1117      C1122   1.408       .  A
C1117      H1123   1.082       .  S
C1118      C1119   1.404       .  A
C1119      C1120   1.394       .  A
C1119      H1124   1.084       .  S
C1120      C1121   1.406       .  A
C1120      H1125   1.081       .  S
C1121      C1122   1.408       .  A
C1122      H1126   1.083       .  S
C1127      C1128   1.402       .  A
C1127      C1132   1.391       .  A
C1127      H1133   1.083       .  S
C1128      C1129   1.406       .  A
C1129      C1130   1.407       .  A
C1129      H1134   1.083       .  S
C1130      C1131   1.407       .  A
C1130      H1135   1.083       .  S
C1131      C1132   1.402       .  A
C1132      H1136   1.084       .  S
C1137      C1138   1.402       .  A
C1137      C1142   1.393       .  A
C1137      H1143   1.083       .  S
C1138      C1139   1.407       .  A
C1139      C1140   1.406       .  A
C1139      H1144   1.083       .  S
C1140      C1141   1.404       .  A
C1140      H1145   1.083       .  S
C1141      C1142   1.405       .  A
C1142      H1146   1.084       .  S
C1147      C1148   1.406       .  A
C1147      C1152   1.399       .  A
C1147      H1153   1.083       .  S
C1148      C1149   1.401       .  A
C1149      C1150   1.391       .  A
C1149      H1154   1.083       .  S
C1150      C1151   1.404       .  A
C1150      H1155   1.084       .  S
C1151      C1152   1.403       .  A
C1152      H1156   1.083       .  S
C1157      C1158   1.407       .  A
C1157      C1162   1.409       .  A
C1157      H1163   1.083       .  S
C1158      C1159   1.402       .  A
C1159      C1160   1.392       .  A
C1159      H1164   1.084       .  S
C1160      C1161   1.404       .  A
C1160      H1165   1.083       .  S
C1161      C1162   1.407       .  A
C1162      H1166   1.083       .  S
C1167      H1169   1.087       .  S
C1167      C1168   1.339       .  D
C1168      H1170   1.088       .  S
C1171      C1172   1.403       .  A
C1171      C1176   1.391       .  A
C1171      H1177   1.083       .  S
C1172      C1173   1.408       .  A
C1173      C1174   1.410       .  A
C1173      H1178   1.083       .  S
C1174      C1175   1.408       .  A
C1174      H1179   1.082       .  S
C1175      C1176   1.403       .  A
C1176      H1180   1.083       .  S
C1181      C1182   1.408       .  A
C1181      C1186   1.412       .  A
C1181      H1187   1.083       .  S
C1182      C1183   1.406       .  A
C1183      C1184   1.396       .  A
C1183      H1188   1.083       .  S
C1184      C1185   1.402       .  A
C1184      H1189   1.083       .  S
C1185      C1186   1.410       .  A
C1186      H1190   1.083       .  S
C1191      C1192   1.408       .  A
C1191      C1196   1.409       .  A
C1191      H1197   1.082       .  S
C1192      C1193   1.403       .  A
C1193      C1194   1.392       .  A
C1193      H1198   1.084       .  S
C1194      C1195   1.404       .  A
C1194      H1199   1.083       .  S
C1195      C1196   1.407       .  A
C1196      H1200   1.083       .  S
C1201      H1203   1.087       .  S
C1201      C1202   1.351       .  D
C1202      H1204   1.087       .  S
C1205      C1206   1.402       .  A
C1205      C1210   1.392       .  A
C1205      H1211   1.083       .  S
C1206      C1207   1.408       .  A
C1207      C1208   1.406       .  A
C1207      H1212   1.083       .  S
C1208      C1209   1.404       .  A
C1208      H1213   1.082       .  S
C1209      C1210   1.403       .  A
C1210      H1214   1.084       .  S
C1215      C1216   1.407       .  A
C1215      C1220   1.397       .  A
C1215      H1221   1.083       .  S
C1216      C1217   1.409       .  A
C1217      C1218   1.416       .  A
C1217      H1222   1.083       .  S
C1218      C1219   1.410       .  A
C1218      H1223   1.083       .  S
C1219      C1220   1.403       .  A
C1220      H1224   1.084       .  S
C1225      C1226   1.408       .  A
C1225      C1230   1.411       .  A
C1225      H1231   1.083       .  S
C1226      C1227   1.402       .  A
C1227      C1228   1.392       .  A
C1227      H1232   1.084       .  S
C1228      C1229   1.403       .  A
C1228      H1233   1.084       .  S
C1229      C1230   1.407       .  A
C1230      H1234   1.083       .  S
C1235      H1237   1.087       .  S
C1235      C1236   1.352       .  D
C1236      H1238   1.086       .  S
C1239      C1240   1.405       .  A
C1239      C1244   1.401       .  A
C1239      H1245   1.082       .  S
C1240      C1241   1.402       .  A
C1241      C1242   1.391       .  A
C1241      H1246   1.084       .  S
C1242      C1243   1.402       .  A
C1242      H1247   1.083       .  S
C1243      C1244   1.404       .  A
C1244      H1248   1.084       .  S
C1249      C1250   1.402       .  A
C1249      C1254   1.395       .  A
C1249      H1255   1.083       .  S
C1250      C1251   1.407       .  A
C1251      C1252   1.409       .  A
C1251      H1256   1.083       .  S
C1252      C1253   1.406       .  A
C1252      H1257   1.082       .  S
C1253      C1254   1.404       .  A
C1254      H1258   1.084       .  S
C1259      C1260   1.407       .  A
C1259      C1264   1.407       .  A
C1259      H1265   1.082       .  S
C1260      C1261   1.404       .  A
C1261      C1262   1.393       .  A
C1261      H1266   1.083       .  S
C1262      C1263   1.403       .  A
C1262      H1267   1.083       .  S
C1263      C1264   1.407       .  A
C1264      H1268   1.083       .  S
C1269      H1271   1.088       .  S
C1269      C1270   1.344       .  D
C1270      H1272   1.088       .  S
C1273      C1274   1.406       .  A
C1273      C1278   1.407       .  A
C1273      H1279   1.083       .  S
C1274      C1275   1.403       .  A
C1275      C1276   1.390       .  A
C1275      H1280   1.083       .  S
C1276      C1277   1.401       .  A
C1276      H1281   1.084       .  S
C1277      C1278   1.407       .  A
C1278      H1282   1.083       .  S
C1283      C1284   1.403       .  A
C1283      C1288   1.390       .  A
C1283      H1289   1.082       .  S
C1284      C1285   1.408       .  A
C1285      C1286   1.402       .  A
C1285      H1290   1.083       .  S
C1286      C1287   1.403       .  A
C1286      H1291   1.083       .  S
C1287      C1288   1.403       .  A
C1288      H1292   1.084       .  S
C1293      C1294   1.402       .  A
C1293      C1298   1.391       .  A
C1293      H1299   1.084       .  S
C1294      C1295   1.406       .  A
C1295      C1296   1.404       .  A
C1295      H1300   1.083       .  S
C1296      C1297   1.405       .  A
C1296      H1301   1.084       .  S
C1297      C1298   1.401       .  A
C1298      H1302   1.083       .  S
C1303      H1305   1.084       .  S
C1303      C1304   1.343       .  D
C1304      H1306   1.087       .  S
C1307      C1308   1.408       .  A
C1307      C1312   1.409       .  A
C1307      H1313   1.083       .  S
C1308      C1309   1.401       .  A
C1309      C1310   1.391       .  A
C1309      H1314   1.083       .  S
C1310      C1311   1.403       .  A
C1310      H1315   1.084       .  S
C1311      C1312   1.407       .  A
C1312      H1316   1.082       .  S
C1317      C1318   1.404       .  A
C1317      C1322   1.394       .  A
C1317      H1323   1.082       .  S
C1318      C1319   1.410       .  A
C1319      C1320   1.410       .  A
C1319      H1324   1.082       .  S
C1320      C1321   1.408       .  A
C1320      H1325   1.083       .  S
C1321      C1322   1.405       .  A
C1322      H1326   1.084       .  S
C1327      C1328   1.404       .  A
C1327      C1332   1.392       .  A
C1327      H1333   1.083       .  S
C1328      C1329   1.405       .  A
C1329      C1330   1.407       .  A
C1329      H1334   1.084       .  S
C1330      C1331   1.408       .  A
C1330      H1335   1.083       .  S
C1331      C1332   1.402       .  A
C1332      H1336   1.084       .  S
C1337      H1339   1.087       .  S
C1337      C1338   1.349       .  D
C1338      H1340   1.087       .  S
C1341      C1342   1.403       .  A
C1341      C1346   1.390       .  A
C1341      H1347   1.084       .  S
C1342      C1343   1.405       .  A
C1343      C1344   1.406       .  A
C1343      H1348   1.083       .  S
C1344      C1345   1.407       .  A
C1344      H1349   1.083       .  S
C1345      C1346   1.400       .  A
C1346      H1350   1.083       .  S
C1351      C1352   1.403       .  A
C1351      C1356   1.396       .  A
C1351      H1357   1.084       .  S
C1352      C1353   1.409       .  A
C1353      C1354   1.414       .  A
C1353      H1358   1.083       .  S
C1354      C1355   1.410       .  A
C1354      H1359   1.083       .  S
C1355      C1356   1.405       .  A
C1356      H1360   1.083       .  S
C1361      C1362   1.407       .  A
C1361      C1366   1.403       .  A
C1361      H1367   1.083       .  S
C1362      C1363   1.404       .  A
C1363      C1364   1.395       .  A
C1363      H1368   1.082       .  S
C1364      C1365   1.404       .  A
C1364      H1369   1.084       .  S
C1365      C1366   1.405       .  A
C1366      H1370   1.083       .  S
C1371      H1373   1.087       .  S
C1371      C1372   1.349       .  D
C1372      H1374   1.086       .  S
C1375      C1376   1.407       .  A
C1375      C1380   1.404       .  A
C1375      H1381   1.083       .  S
C1376      C1377   1.400       .  A
C1377      C1378   1.388       .  A
C1377      H1382   1.083       .  S
C1378      C1379   1.403       .  A
C1378      H1383   1.084       .  S
C1379      C1380   1.405       .  A
C1380      H1384   1.083       .  S
C1385      C1386   1.409       .  A
C1385      C1390   1.413       .  A
C1385      H1391   1.082       .  S
C1386      C1387   1.404       .  A
C1387      C1388   1.393       .  A
C1387      H1392   1.084       .  S
C1388      C1389   1.404       .  A
C1388      H1393   1.083       .  S
C1389      C1390   1.409       .  A
C1390      H1394   1.083       .  S
C1395      C1396   1.407       .  A
C1395      C1400   1.412       .  A
C1395      H1401   1.083       .  S
C1396      C1397   1.406       .  A
C1397      C1398   1.395       .  A
C1397      H1402   1.082       .  S
C1398      C1399   1.401       .  A
C1398      H1403   1.084       .  S
C1399      C1400   1.410       .  A
C1400      H1404   1.082       .  S
C1405      H1407   1.087       .  S
C1405      C1406   1.345       .  D
C1406      H1408   1.087       .  S
C1409      C1410   1.402       .  A
C1409      C1414   1.390       .  A
C1409      H1415   1.084       .  S
C1410      C1411   1.406       .  A
C1411      C1412   1.404       .  A
C1411      H1416   1.083       .  S
C1412      C1413   1.406       .  A
C1412      H1417   1.082       .  S
C1413      C1414   1.403       .  A
C1414      H1418   1.083       .  S
C1419      C1420   1.407       .  A
C1419      C1424   1.402       .  A
C1419      H1425   1.082       .  S
C1420      C1421   1.404       .  A
C1421      C1422   1.392       .  A
C1421      H1426   1.083       .  S
C1422      C1423   1.403       .  A
C1422      H1427   1.083       .  S
C1423      C1424   1.404       .  A
C1424      H1428   1.084       .  S
C1429      C1430   1.408       .  A
C1429      C1434   1.411       .  A
C1429      H1435   1.082       .  S
C1430      C1431   1.404       .  A
C1431      C1432   1.392       .  A
C1431      H1436   1.084       .  S
C1432      C1433   1.403       .  A
C1432      H1437   1.083       .  S
C1433      C1434   1.408       .  A
C1434      H1438   1.083       .  S
C1439      H1441   1.087       .  S
C1439      C1440   1.347       .  D
C1440      H1442   1.087       .  S
C1443      C1444   1.404       .  A
C1443      C1448   1.392       .  A
C1443      H1449   1.083       .  S
C1444      C1445   1.405       .  A
C1445      C1446   1.405       .  A
C1445      H1450   1.083       .  S
C1446      C1447   1.407       .  A
C1446      H1451   1.083       .  S
C1447      C1448   1.402       .  A
C1448      H1452   1.084       .  S
C1453      C1454   1.408       .  A
C1453      C1458   1.409       .  A
C1453      H1459   1.083       .  S
C1454      C1455   1.406       .  A
C1455      C1456   1.398       .  A
C1455      H1460   1.083       .  S
C1456      C1457   1.406       .  A
C1456      H1461   1.084       .  S
C1457      C1458   1.408       .  A
C1458      H1462   1.082       .  S
C1463      C1464   1.403       .  A
C1463      C1468   1.393       .  A
C1463      H1469   1.084       .  S
C1464      C1465   1.407       .  A
C1465      C1466   1.410       .  A
C1465      H1470   1.083       .  S
C1466      C1467   1.407       .  A
C1466      H1471   1.083       .  S
C1467      C1468   1.403       .  A
C1468      H1472   1.083       .  S
C1473      H1475   1.088       .  S
C1473      C1474   1.354       .  D
C1474      H1476   1.084       .  S
C1477      C1478   1.398       .  A
C1477      C1482   1.387       .  A
C1477      H1483   1.084       .  S
C1478      C1479   1.407       .  A
C1479      C1480   1.407       .  A
C1479      H1484   1.083       .  S
C1480      C1481   1.404       .  A
C1480      H1485   1.083       .  S
C1481      C1482   1.402       .  A
C1482      H1486   1.084       .  S
C1487      C1488   1.403       .  A
C1487      C1492   1.394       .  A
C1487      H1493   1.084       .  S
C1488      C1489   1.408       .  A
C1489      C1490   1.412       .  A
C1489      H1494   1.083       .  S
C1490      C1491   1.408       .  A
C1490      H1495   1.083       .  S
C1491      C1492   1.403       .  A
C1492      H1496   1.084       .  S
C1497      C1498   1.404       .  A
C1497      C1502   1.393       .  A
C1497      H1503   1.082       .  S
C1498      C1499   1.410       .  A
C1499      C1500   1.411       .  A
C1499      H1504   1.083       .  S
C1500      C1501   1.407       .  A
C1500      H1505   1.083       .  S
C1501      C1502   1.403       .  A
C1502      H1506   1.084       .  S
C1507      H1509   1.087       .  S
C1507      C1508   1.352       .  D
C1508      H1510   1.088       .  S
C1511      C1512   1.403       .  A
C1511      C1516   1.389       .  A
C1511      H1517   1.083       .  S
C1512      C1513   1.405       .  A
C1513      C1514   1.408       .  A
C1513      H1518   1.084       .  S
C1514      C1515   1.409       .  A
C1514      H1519   1.082       .  S
C1515      C1516   1.400       .  A
C1516      H1520   1.084       .  S
C1521      C1522   1.408       .  A
C1521      C1526   1.404       .  A
C1521      H1527   1.082       .  S
C1522      C1523   1.403       .  A
C1523      C1524   1.395       .  A
C1523      H1528   1.083       .  S
C1524      C1525   1.405       .  A
C1524      H1529   1.083       .  S
C1525      C1526   1.405       .  A
C1526      H1530   1.083       .  S
C1531      C1532   1.403       .  A
C1531      C1536   1.402       .  A
C1531      H1537   1.083       .  S
C1532      C1533   1.401       .  A
C1533      C1534   1.389       .  A
C1533      H1538   1.084       .  S
C1534      C1535   1.401       .  A
C1534      H1539   1.084       .  S
C1535      C1536   1.405       .  A
C1536      H1540   1.083       .  S
C1541      H1543   1.088       .  S
C1541      C1542   1.345       .  D
C1542      H1544   1.086       .  S
C1545      C1546   1.403       .  A
C1545      C1550   1.392       .  A
C1545      H1551   1.084       .  S
C1546      C1547   1.407       .  A
C1547      C1548   1.407       .  A
C1547      H1552   1.082       .  S
C1548      C1549   1.406       .  A
C1548      H1553   1.083       .  S
C1549      C1550   1.403       .  A
C1550      H1554   1.083       .  S
C1555      C1556   1.406       .  A
C1555      C1560   1.409       .  A
C1555      H1561   1.082       .  S
C1556      C1557   1.405       .  A
C1557      C1558   1.392       .  A
C1557      H1562   1.084       .  S
C1558      C1559   1.402       .  A
C1558      H1563   1.083       .  S
C1559      C1560   1.408       .  A
C1560      H1564   1.084       .  S
C1565      C1566   1.407       .  A
C1565      C1570   1.402       .  A
C1565      H1571   1.083       .  S
C1566      C1567   1.402       .  A
C1567      C1568   1.390       .  A
C1567      H1572   1.083       .  S
C1568      C1569   1.403       .  A
C1568      H1573   1.083       .  S
C1569      C1570   1.403       .  A
C1570      H1574   1.083       .  S
C1575      H1577   1.088       .  S
C1575      C1576   1.347       .  D
C1576      H1578   1.089       .  S
C1579      C1580   1.401       .  A
C1579      C1584   1.389       .  A
C1579      H1585   1.083       .  S
C1580      C1581   1.405       .  A
C1581      C1582   1.405       .  A
C1581      H1586   1.084       .  S
C1582      C1583   1.404       .  A
C1582      H1587   1.082       .  S
C1583      C1584   1.401       .  A
C1584      H1588   1.085       .  S
C1589      C1590   1.402       .  A
C1589      C1594   1.390       .  A
C1589      H1595   1.083       .  S
C1590      C1591   1.406       .  A
C1591      C1592   1.398       .  A
C1591      H1596   1.082       .  S
C1592      C1593   1.402       .  A
C1592      H1597   1.083       .  S
C1593      C1594   1.401       .  A
C1594      H1598   1.083       .  S
C1599      C1600   1.406       .  A
C1599      C1604   1.408       .  A
C1599      H1605   1.083       .  S
C1600      C1601   1.401       .  A
C1601      C1602   1.386       .  A
C1601      H1606   1.084       .  S
C1602      C1603   1.401       .  A
C1602      H1607   1.084       .  S
C1603      C1604   1.407       .  A
C1604      H1608   1.083       .  S
C1609      H1611   1.087       .  S
C1609      C1610   1.340       .  D
C1610      H1612   1.089       .  S
C1613      C1614   1.402       .  A
C1613      C1618   1.390       .  A
C1613      H1619   1.083       .  S
C1614      C1615   1.406       .  A
C1615      C1616   1.407       .  A
C1615      H1620   1.084       .  S
C1616      C1617   1.406       .  A
C1616      H1621   1.082       .  S
C1617      C1618   1.402       .  A
C1618      H1622   1.084       .  S
C1623      C1624   1.402       .  A
C1623      C1628   1.390       .  A
C1623      H1629   1.084       .  S
C1624      C1625   1.406       .  A
C1625      C1626   1.408       .  A
C1625      H1630   1.083       .  S
C1626      C1627   1.407       .  A
C1626      H1631   1.083       .  S
C1627      C1628   1.401       .  A
C1628      H1632   1.084       .  S
C1633      C1634   1.408       .  A
C1633      C1638   1.409       .  A
C1633      H1639   1.082       .  S
C1634      C1635   1.404       .  A
C1635      C1636   1.394       .  A
C1635      H1640   1.083       .  S
C1636      C1637   1.403       .  A
C1636      H1641   1.083       .  S
C1637      C1638   1.408       .  A
C1638      H1642   1.083       .  S
C1643      H1645   1.085       .  S
C1643      C1644   1.354       .  D
C1644      H1646   1.083       .  S
C1647      C1648   1.403       .  A
C1647      C1652   1.391       .  A
C1647      H1653   1.083       .  S
C1648      C1649   1.404       .  A
C1649      C1650   1.405       .  A
C1649      H1654   1.084       .  S
C1650      C1651   1.409       .  A
C1650      H1655   1.082       .  S
C1651      C1652   1.402       .  A
C1652      H1656   1.083       .  S
C1657      C1658   1.407       .  A
C1657      C1662   1.396       .  A
C1657      H1663   1.083       .  S
C1658      C1659   1.409       .  A
C1659      C1660   1.413       .  A
C1659      H1664   1.082       .  S
C1660      C1661   1.410       .  A
C1660      H1665   1.083       .  S
C1661      C1662   1.403       .  A
C1662      H1666   1.083       .  S
C1667      C1668   1.404       .  A
C1667      C1672   1.392       .  A
C1667      H1673   1.084       .  S
C1668      C1669   1.408       .  A
C1669      C1670   1.414       .  A
C1669      H1674   1.082       .  S
C1670      C1671   1.410       .  A
C1670      H1675   1.083       .  S
C1671      C1672   1.402       .  A
C1672      H1676   1.083       .  S
C1677      H1679   1.084       .  S
C1677      C1678   1.347       .  D
C1678      H1680   1.087       .  S
C1681      C1682   1.408       .  A
C1681      C1686   1.413       .  A
C1681      H1687   1.082       .  S
C1682      C1683   1.404       .  A
C1683      C1684   1.393       .  A
C1683      H1688   1.084       .  S
C1684      C1685   1.403       .  A
C1684      H1689   1.083       .  S
C1685      C1686   1.410       .  A
C1686      H1690   1.083       .  S
C1691      C1692   1.404       .  A
C1691      C1696   1.394       .  A
C1691      H1697   1.084       .  S
C1692      C1693   1.409       .  A
C1693      C1694   1.408       .  A
C1693      H1698   1.082       .  S
C1694      C1695   1.407       .  A
C1694      H1699   1.084       .  S
C1695      C1696   1.404       .  A
C1696      H1700   1.083       .  S
C1701      C1702   1.402       .  A
C1701      C1706   1.391       .  A
C1701      H1707   1.084       .  S
C1702      C1703   1.406       .  A
C1703      C1704   1.407       .  A
C1703      H1708   1.083       .  S
C1704      C1705   1.407       .  A
C1704      H1709   1.083       .  S
C1705      C1706   1.402       .  A
C1706      H1710   1.083       .  S
C1711      H1713   1.087       .  S
C1711      C1712   1.349       .  D
C1712      H1714   1.088       .  S
C1715      C1716   1.402       .  A
C1715      C1720   1.390       .  A
C1715      H1721   1.084       .  S
C1716      C1717   1.407       .  A
C1717      C1718   1.409       .  A
C1717      H1722   1.083       .  S
C1718      C1719   1.407       .  A
C1718      H1723   1.083       .  S
C1719      C1720   1.402       .  A
C1720      H1724   1.084       .  S
C1725      C1726   1.404       .  A
C1725      C1730   1.391       .  A
C1725      H1731   1.083       .  S
C1726      C1727   1.407       .  A
C1727      C1728   1.409       .  A
C1727      H1732   1.083       .  S
C1728      C1729   1.408       .  A
C1728      H1733   1.083       .  S
C1729      C1730   1.401       .  A
C1730      H1734   1.084       .  S
C1735      C1736   1.408       .  A
C1735      C1740   1.407       .  A
C1735      H1741   1.082       .  S
C1736      C1737   1.402       .  A
C1737      C1738   1.393       .  A
C1737      H1742   1.084       .  S
C1738      C1739   1.404       .  A
C1738      H1743   1.083       .  S
C1739      C1740   1.405       .  A
C1740      H1744   1.083       .  S
C1745      H1747   1.088       .  S
C1745      C1746   1.348       .  D
C1746      H1748   1.087       .  S
C1749      C1750   1.403       .  A
C1749      C1754   1.391       .  A
C1749      H1755   1.083       .  S
C1750      C1751   1.407       .  A
C1751      C1752   1.404       .  A
C1751      H1756   1.082       .  S
C1752      C1753   1.406       .  A
C1752      H1757   1.083       .  S
C1753      C1754   1.402       .  A
C1754      H1758   1.083       .  S
C1759      C1760   1.403       .  A
C1759      C1764   1.393       .  A
C1759      H1765   1.084       .  S
C1760      C1761   1.408       .  A
C1761      C1762   1.412       .  A
C1761      H1766   1.083       .  S
C1762      C1763   1.408       .  A
C1762      H1767   1.083       .  S
C1763      C1764   1.403       .  A
C1764      H1768   1.083       .  S
C1769      C1770   1.408       .  A
C1769      C1774   1.411       .  A
C1769      H1775   1.083       .  S
C1770      C1771   1.406       .  A
C1771      C1772   1.393       .  A
C1771      H1776   1.082       .  S
C1772      C1773   1.403       .  A
C1772      H1777   1.084       .  S
C1773      C1774   1.409       .  A
C1774      H1778   1.082       .  S
C1779      H1781   1.086       .  S
C1779      C1780   1.346       .  D
C1780      H1782   1.087       .  S
C1783      C1784   1.401       .  A
C1783      C1788   1.385       .  A
C1783      H1789   1.084       .  S
C1784      C1785   1.404       .  A
C1785      C1786   1.400       .  A
C1785      H1790   1.083       .  S
C1786      C1787   1.405       .  A
C1786      H1791   1.083       .  S
C1787      C1788   1.400       .  A
C1788      H1792   1.083       .  S
C1793      C1794   1.408       .  A
C1793      C1798   1.397       .  A
C1793      H1799   1.082       .  S
C1794      C1795   1.410       .  A
C1795      C1796   1.416       .  A
C1795      H1800   1.083       .  S
C1796      C1797   1.411       .  A
C1796      H1801   1.082       .  S
C1797      C1798   1.402       .  A
C1798      H1802   1.084       .  S
C1803      C1804   1.403       .  A
C1803      C1808   1.394       .  A
C1803      H1809   1.083       .  S
C1804      C1805   1.408       .  A
C1805      C1806   1.412       .  A
C1805      H1810   1.084       .  S
C1806      C1807   1.408       .  A
C1806      H1811   1.082       .  S
C1807      C1808   1.403       .  A
C1808      H1812   1.084       .  S
C1813      H1815   1.088       .  S
C1813      C1814   1.343       .  D
C1814      H1816   1.088       .  S
