geometry optimzed in LAMMPS
_audit_creation_date              2020-11-30 
_audit_creation_method            'lammps2cif' 
_symmetry_space_group_name_H-M    'P1' 
_symmetry_Int_Tables_number       1 
_symmetry_cell_setting            triclinic 
loop_ 
_symmetry_equiv_pos_as_xyz 
  x,y,z 
_cell_length_a                    44.669448758966695 
_cell_length_b                    45.38170688783024 
_cell_length_c                    45.2164711662162 
_cell_angle_alpha                 90.38734047118153 
_cell_angle_beta                  89.79433486038623 
_cell_angle_gamma                 90.22285301415418 
loop_ 
_atom_site_label 
_atom_site_type_symbol 
_atom_site_fract_x 
_atom_site_fract_y 
_atom_site_fract_z 
_atom_site_charge 
C1          C  0.61563121  0.73452218  0.84570169     0.03690
C2          C  0.62599502  0.70913598  0.83126572    -0.12460
C3          C  0.65642880  0.70305333  0.83110456     0.01190
C4          C  0.67436195  0.71503693  0.85314452    -0.10990
C5          C  0.66424608  0.73874392  0.87083802     0.03680
C6          C  0.63481382  0.74952939  0.86595063    -0.10410
H7          H  0.61261891  0.69943649  0.81366486     0.09270
H8          H  0.69771843  0.70865905  0.85317753     0.06800
H9          H  0.62763992  0.76993878  0.87623235     0.06650
C10         C  0.76745707  0.69498392  0.69211625     0.03690
C11         C  0.74275872  0.68617808  0.70921523    -0.12460
C12         C  0.72733437  0.70707393  0.72642702     0.01190
C13         C  0.73592888  0.73697029  0.72428986    -0.10990
C14         C  0.75802565  0.74577965  0.70436060     0.03680
C15         C  0.77362259  0.72477163  0.68810584    -0.10410
H16         H  0.73776028  0.66294498  0.71113577     0.09270
H17         H  0.72540247  0.75368393  0.73798097     0.06800
H18         H  0.79241205  0.73146650  0.67439251     0.06650
C19         C  0.77127059  0.89508116  0.62698902     0.03690
C20         C  0.78281778  0.87966968  0.65098294    -0.12460
C21         C  0.78873781  0.85003887  0.64848302     0.01190
C22         C  0.78864810  0.83679124  0.62067274    -0.10990
C23         C  0.77335090  0.84979066  0.59679741     0.03680
C24         C  0.76499651  0.87995297  0.59986672    -0.10410
H25         H  0.78345297  0.88979326  0.67281017     0.09270
H26         H  0.79450860  0.81363837  0.62009469     0.06800
H27         H  0.75296479  0.89091237  0.58238224     0.06650
C28         C  0.88606632  0.58759095  0.71869999     0.03690
C29         C  0.87016810  0.59810632  0.69439513    -0.12460
C30         C  0.87468449  0.62650422  0.68471924     0.01190
C31         C  0.90137378  0.64058349  0.69145169    -0.10990
C32         C  0.91811241  0.63181746  0.71627988     0.03680
C33         C  0.91017851  0.60473535  0.73041641    -0.10410
H34         H  0.84961729  0.58706534  0.68765434     0.09270
H35         H  0.90485229  0.66205176  0.68162518     0.06800
H36         H  0.92103664  0.59822296  0.75069605     0.06650
O37         O  0.46974488  0.75020475  0.70293133    -0.87790
C38         C  0.52241856  0.67828495  0.72319809     0.88240
Mg39       Mg  0.48722734  0.78760180  0.67825002     1.58150
O40         O  0.51144594  0.73075497  0.78130701    -0.87520
O41         O  0.44992979  0.74233250  0.74619118    -0.74850
C42         C  0.62137470  0.81592156  0.73445643     0.93290
O43         O  0.52101064  0.72292512  0.66178765    -0.74660
O44         O  0.60619987  0.82035077  0.71123838    -0.82170
Mg45       Mg  0.47771706  0.70647143  0.68418766     1.57960
C46         C  0.59041005  0.74839726  0.83000230     0.93210
O47         O  0.43580428  0.68040020  0.70079058    -0.80430
H48         H  0.48579408  0.75369602  0.80955410    -0.05780
C49         C  0.58838516  0.73530905  0.73398677     0.88150
O50         O  0.49876625  0.81253254  0.72186910    -0.74940
O51         O  0.50074925  0.69499825  0.72528173    -0.87710
O52         O  0.56699063  0.73313560  0.82523786    -0.80520
C53         C  0.51179627  0.65735609  0.81317239     0.93330
C54         C  0.42846730  0.66670332  0.72431473     0.93180
Mg55       Mg  0.56904680  0.78501498  0.77382269     1.57950
O56         O  0.61498414  0.79451869  0.75131336    -0.80440
O57         O  0.52414469  0.77481449  0.79751257    -0.74680
O58         O  0.48955079  0.66403619  0.79696106    -0.80520
O59         O  0.45033051  0.72137477  0.64356913    -0.82230
O60         O  0.54516274  0.83716780  0.68107810    -0.80550
C61         C  0.50616487  0.75292545  0.79659101     0.87620
O62         O  0.54348112  0.79782623  0.73593232    -0.87690
O63         O  0.57123965  0.74201212  0.75456675    -0.87800
O64         O  0.58980143  0.75035714  0.71028447    -0.74850
Mg65       Mg  0.47485586  0.70338564  0.76648390     1.57970
O66         O  0.53650797  0.67122114  0.81117951    -0.82230
H67         H  0.43471510  0.77325003  0.71783355    -0.05950
O68         O  0.53004653  0.76721741  0.67873179    -0.87500
H69         H  0.55610732  0.74805144  0.64821270    -0.05780
H70         H  0.52017316  0.82829713  0.75835089    -0.05950
C71         C  0.53651170  0.74642117  0.66222179     0.87590
C72         C  0.45062141  0.75583135  0.72179715     0.88180
C73         C  0.52104564  0.81353839  0.73949660     0.88230
H74         H  0.60226678  0.71597256  0.73605855    -0.05930
O75         O  0.54414729  0.67975139  0.74118308    -0.74960
Mg76       Mg  0.56659537  0.79316339  0.69494400     1.58000
H77         H  0.52306824  0.66226259  0.70540219    -0.05950
C78         C  0.45166502  0.74637729  0.63080066     0.93210
O79         O  0.50670996  0.82726470  0.65163283    -0.82190
C80         C  0.52909936  0.84337211  0.65885069     0.93270
O81         O  0.43902211  0.67335328  0.74955603    -0.82170
Mg82       Mg  0.55424229  0.70801580  0.78230970     1.58180
O83         O  0.47431985  0.76332468  0.63446503    -0.80510
O84         O  0.59573775  0.77096835  0.81442335    -0.82200
C85         C  0.50966359  0.09609577  0.86450500     0.03690
C86         C  0.52839762  0.08607009  0.84158127    -0.12460
C87         C  0.53724747  0.10384964  0.81778121     0.01190
C88         C  0.52811506  0.13300521  0.81767548    -0.10990
C89         C  0.50771276  0.14362152  0.83864005     0.03680
C90         C  0.49830122  0.12530741  0.86247947    -0.10410
H91         H  0.53465596  0.06312819  0.84122409     0.09270
H92         H  0.53551439  0.14733986  0.80004236     0.06800
H93         H  0.48238133  0.13343954  0.87865172     0.06650
C94         C  0.47274174  0.98022827  0.73523034     0.03690
C95         C  0.48377170  0.00804676  0.74453691    -0.12460
C96         C  0.51466173  0.01145462  0.75046136     0.01190
C97         C  0.53306393  0.98703436  0.74627904    -0.10990
C98         C  0.52070977  0.95908681  0.74423757     0.03680
C99         C  0.49071305  0.95537128  0.73828995    -0.10410
H100        H  0.46884532  0.02674499  0.74503588     0.09270
H101        H  0.55720952  0.98923769  0.74746684     0.06800
H102        H  0.48245204  0.93352131  0.73280791     0.06650
C103        C  0.35356848  0.96770189  0.61917112     0.03690
C104        C  0.36800758  0.95018799  0.63976025    -0.12460
C105        C  0.39855308  0.94687226  0.63773586     0.01190
C106        C  0.41189102  0.94886233  0.60989001    -0.10990
C107        C  0.39808794  0.96542225  0.58724953     0.03680
C108        C  0.36869516  0.97620145  0.59277131    -0.10410
H109        H  0.35747271  0.94689866  0.66119174     0.09270
H110        H  0.43545387  0.94342347  0.60860955     0.06800
H111        H  0.35866272  0.99202784  0.57802781     0.06650
C112        C  0.66883223  0.88504367  0.74558007     0.03690
C113        C  0.66279186  0.85550408  0.73666907    -0.12460
C114        C  0.63645185  0.84147022  0.74763296     0.01190
C115        C  0.61708663  0.85687237  0.76627916    -0.10990
C116        C  0.61956580  0.88704206  0.76808957     0.03680
C117        C  0.64649239  0.90051194  0.76107196    -0.10410
H118        H  0.67760789  0.84409116  0.72148454     0.09270
H119        H  0.59571044  0.84703701  0.77241527     0.06800
H120        H  0.64796395  0.92426890  0.76354482     0.06650
C121        C  0.51834129  0.36079354  0.12954507     0.03690
C122        C  0.53564673  0.34507414  0.10911215    -0.12460
C123        C  0.52673196  0.34331564  0.07927714     0.01190
C124        C  0.50710272  0.36526186  0.06953179    -0.10990
C125        C  0.49945522  0.38895550  0.08798565     0.03680
C126        C  0.50156316  0.38499027  0.11898434    -0.10410
H127        H  0.55292203  0.33082641  0.11755745     0.09270
H128        H  0.49859753  0.36572626  0.04736761     0.06800
H129        H  0.49119915  0.40037325  0.13415645     0.06650
C130        C  0.55733714  0.19563355  0.98341102     0.03690
C131        C  0.55731599  0.22565369  0.99074959    -0.12460
C132        C  0.54297664  0.23527537  0.01617384     0.01190
C133        C  0.52593039  0.21543933  0.03293102    -0.10990
C134        C  0.52205645  0.18618582  0.02394157     0.03680
C135        C  0.53837262  0.17647612  0.99870450    -0.10410
H136        H  0.57129581  0.24096646  0.97855790     0.09270
H137        H  0.51700308  0.22299906  0.05373194     0.06800
H138        H  0.53709830  0.15400386  0.99096980     0.06650
C139        C  0.61740010  0.23909979  0.84702591     0.03690
C140        C  0.60945942  0.21529783  0.86509633    -0.12460
C141        C  0.62971930  0.20306595  0.88472708     0.01190
C142        C  0.65958196  0.21193076  0.88349877    -0.10990
C143        C  0.66729603  0.23854932  0.86978975     0.03680
C144        C  0.64620876  0.25212068  0.85078008    -0.10410
H145        H  0.58638976  0.20797133  0.86608887     0.09270
H146        H  0.67499809  0.20206944  0.89903372     0.06800
H147        H  0.65185264  0.27253159  0.83977237     0.06650
C148        C  0.39982202  0.08738373  0.97465746     0.03690
C149        C  0.41999318  0.09539747  0.99682869    -0.12460
C150        C  0.42363393  0.12464106  0.00533086     0.01190
C151        C  0.40434811  0.14588681  0.99379673    -0.10990
C152        C  0.38089827  0.13837327  0.97449053     0.03680
C153        C  0.37948681  0.10878018  0.96364624    -0.10410
H154        H  0.43469964  0.07889049  0.00604997     0.09270
H155        H  0.40789642  0.16875492  0.99983094     0.06800
H156        H  0.36289205  0.10252080  0.94742362     0.06650
O157        O  0.27635527  0.01663590  0.78411746    -0.87790
C158        C  0.19744819  0.01277087  0.73994848     0.88240
Mg159      Mg  0.31450765  0.03976066  0.76625089     1.58150
O160        O  0.23710530  0.94628592  0.74274305    -0.87520
O161        O  0.26136295  0.97421263  0.80241679    -0.74850
C162        C  0.32892337  0.98362767  0.63326615     0.93290
O163        O  0.24808926  0.06506625  0.74075195    -0.74660
O164        O  0.33570571  0.00710428  0.64728089    -0.82170
Mg165      Mg  0.23581201  0.04166283  0.78460213     1.57960
C166        C  0.24569607  0.89632900  0.66379908     0.93210
O167        O  0.22349654  0.02059636  0.82999803    -0.80430
H168        H  0.25635322  0.91359345  0.76519425    -0.05780
C169        C  0.24716552  0.99480722  0.66768330     0.88150
O170        O  0.33488855  0.99533366  0.75078419    -0.74940
O171        O  0.21544327  0.00652367  0.75969067    -0.87710
O172        O  0.22828840  0.90453560  0.68480965    -0.80520
C173        C  0.15906863  0.93399433  0.74696971     0.93330
C174        C  0.19936978  0.00704041  0.83655572     0.93180
Mg175      Mg  0.29193437  0.94864137  0.68423023     1.57950
O176        O  0.30505378  0.96937469  0.63924769    -0.80440
O177        O  0.27911584  0.92570814  0.72815445    -0.74680
O178        O  0.16749121  0.95638042  0.76187190    -0.80520
O179        O  0.25731669  0.07951722  0.81023682    -0.82230
O180        O  0.36017480  0.04038931  0.70520985    -0.80550
C181        C  0.25720215  0.92789118  0.74617493     0.87620
O182        O  0.31280803  0.98475527  0.70876847    -0.87690
O183        O  0.25109691  0.97327083  0.68391804    -0.87800
O184        O  0.26596423  0.01601018  0.66635563    -0.74850
Mg185      Mg  0.21492204  0.96487392  0.78123119     1.57970
O186        O  0.17210376  0.92727425  0.72279095    -0.82230
H187        H  0.30066770  0.99419563  0.81343786    -0.05950
O188        O  0.29010520  0.04481631  0.72574729    -0.87500
H189        H  0.27046892  0.07747668  0.70358114    -0.05780
H190        H  0.34443234  0.95895537  0.72601954    -0.05950
C191        C  0.26985663  0.06308758  0.72253837     0.87590
C192        C  0.28037485  0.99521614  0.80052930     0.88180
C193        C  0.33127757  0.97881437  0.72816799     0.88230
H194        H  0.22706209  0.99580178  0.65448606    -0.05930
O195        O  0.19355542  0.99604632  0.71751874    -0.74960
Mg196      Mg  0.31219132  0.02702053  0.68724124     1.58000
H197        H  0.18488440  0.03303367  0.74167747    -0.05950
C198        C  0.28093593  0.09375638  0.80361567     0.93210
O199        O  0.35463905  0.06455212  0.74756941    -0.82190
C200        C  0.36767392  0.06140671  0.72275585     0.93270
O201        O  0.19113754  0.98459758  0.82167853    -0.82170
Mg202      Mg  0.21262348  0.95090038  0.70228110     1.58180
O203        O  0.29779417  0.08568609  0.78230168    -0.80510
O204        O  0.27000041  0.91013392  0.65837268    -0.82200
C205        C  0.01108546  0.36223160  0.13324102     0.03690
C206        C  0.01751977  0.38641597  0.15144661    -0.12460
C207        C  0.02624111  0.41307725  0.13975872     0.01190
C208        C  0.02813723  0.41678750  0.10959727    -0.10990
C209        C  0.01962199  0.39424255  0.09028182     0.03680
C210        C  0.01140926  0.36603528  0.10188328    -0.10410
H211        H  0.01602634  0.38447630  0.17535526     0.09270
H212        H  0.03387466  0.43846979  0.10116797     0.06800
H213        H  0.00552933  0.34799188  0.08722693     0.06650
C214        C  0.13527527  0.50149570  0.38777141     0.03690
C215        C  0.12847368  0.52649803  0.37059619    -0.12460
C216        C  0.14151503  0.53083412  0.34321070     0.01190
C217        C  0.16802071  0.51705438  0.33645303    -0.10990
C218        C  0.17838010  0.49378947  0.35363866     0.03680
C219        C  0.16087758  0.48435016  0.37876817    -0.10410
H220        H  0.10828991  0.53913035  0.37459462     0.09270
H221        H  0.17828536  0.52164955  0.31512917     0.06800
H222        H  0.16671803  0.46449003  0.39045837     0.06650
C223        C  0.02458930  0.50698846  0.22462795     0.03690
C224        C  0.04868904  0.52449449  0.23396187    -0.12460
C225        C  0.04651708  0.54019582  0.26057771     0.01190
C226        C  0.01872610  0.54437714  0.27384284    -0.10990
C227        C  0.99380496  0.52984124  0.26249781     0.03680
C228        C  0.99729349  0.50898192  0.24000568    -0.10410
H229        H  0.07024075  0.52287781  0.22307169     0.09270
H230        H  0.01655666  0.55858594  0.29308558     0.06800
H231        H  0.97791182  0.49644181  0.23287190     0.06650
C232        C  0.85055089  0.61214107  0.23766222     0.03690
C233        C  0.86299573  0.59263807  0.25775300    -0.12460
C234        C  0.88884491  0.60009254  0.27242338     0.01190
C235        C  0.89694834  0.62973899  0.27454624    -0.10990
C236        C  0.88851247  0.64935558  0.25190838     0.03680
C237        C  0.86405326  0.64049329  0.23339137    -0.10410
H238        H  0.85590180  0.56970410  0.25767367     0.09270
H239        H  0.91623261  0.63464406  0.28822201     0.06800
H240        H  0.85710662  0.65418096  0.21516998     0.06650
O241        O  0.79997136  0.53379809  0.71326852    -0.87790
C242        C  0.81191056  0.44372921  0.70998849     0.88240
Mg243      Mg  0.79887796  0.55995507  0.75364943     1.58150
O244        O  0.73879632  0.46520406  0.69334927    -0.87520
O245        O  0.77197025  0.52512242  0.67421475    -0.74850
C246        C  0.70171508  0.48265768  0.83648853     0.93290
O247        O  0.83664686  0.49397715  0.75874340    -0.74660
O248        O  0.72308019  0.50058305  0.84203142    -0.82170
Mg249      Mg  0.83612030  0.50259034  0.70860398     1.57960
C250        C  0.67001965  0.41847723  0.73736975     0.93210
O251        O  0.84038290  0.50978124  0.65866665    -0.80430
H252        H  0.70922066  0.48493610  0.66704893    -0.05780
C253        C  0.75329800  0.44215257  0.77854133     0.88150
O254        O  0.74698927  0.55949468  0.75210995    -0.74940
O255        O  0.80476727  0.46813970  0.70040554    -0.87710
O256        O  0.68903514  0.41631769  0.71617931    -0.80520
C257        C  0.76612524  0.40148550  0.65253566     0.93330
C258        C  0.83247173  0.50269523  0.63243617     0.93180
Mg259      Mg  0.70124848  0.48047686  0.76074493     1.57950
O260        O  0.69613980  0.47515703  0.80990553    -0.80440
O261        O  0.69977232  0.48828538  0.71085278    -0.74680
O262        O  0.77518112  0.42796273  0.65061754    -0.80520
O263        O  0.86926648  0.53943567  0.71520108    -0.82230
O264        O  0.76249178  0.56002767  0.82076020    -0.80550
C265        C  0.71559275  0.47926600  0.68933707     0.87620
O266        O  0.73218585  0.51677623  0.76919930    -0.87690
O267        O  0.73848560  0.45030723  0.75700515    -0.87800
O268        O  0.76371429  0.46030934  0.79756724    -0.74850
Mg269      Mg  0.77415965  0.47537290  0.66374532     1.57970
O270        O  0.74787266  0.39401038  0.67311682    -0.82230
H271        H  0.77943020  0.56596821  0.69129158    -0.05950
O272        O  0.79914144  0.51878121  0.77780535    -0.87500
H273        H  0.82756645  0.49590414  0.80274512    -0.05780
H274        H  0.70324499  0.54764715  0.75633015    -0.05950
C275        C  0.82140221  0.50296280  0.78081316     0.87590
C276        C  0.78401082  0.54264971  0.69283402     0.88180
C277        C  0.72637757  0.54142336  0.75928230     0.88230
H278        H  0.75797788  0.41893898  0.78100104    -0.05930
O279        O  0.79240889  0.42510410  0.71828734    -0.74960
Mg280      Mg  0.76183494  0.51056090  0.80725683     1.58000
H281        H  0.83537546  0.43846116  0.71220622    -0.05950
C282        C  0.87087440  0.56188118  0.73210690     0.93210
O283        O  0.79471042  0.58887615  0.79657110    -0.82190
C284        C  0.77612387  0.58478505  0.81776149     0.93270
O285        O  0.81024542  0.48569895  0.62819239    -0.82170
Mg286      Mg  0.74114212  0.42347676  0.71656090     1.58180
O287        O  0.85193224  0.56612358  0.75313372    -0.80510
O288        O  0.66998291  0.44050932  0.75503475    -0.82200
C289        C  0.92037683  0.51594346  0.09733485     0.03690
C290        C  0.90609788  0.54008555  0.08408119    -0.12460
C291        C  0.87573954  0.54454763  0.08751921     0.01190
C292        C  0.86047467  0.52989767  0.10963800    -0.10990
C293        C  0.87470800  0.50889644  0.12682953     0.03680
C294        C  0.90458457  0.50041174  0.11986205    -0.10410
H295        H  0.91732597  0.55333862  0.06782275     0.09270
H296        H  0.83670429  0.53399676  0.11266290     0.06800
H297        H  0.91500998  0.48267265  0.13170117     0.06650
C298        C  0.73156177  0.56662702  0.99120074     0.03690
C299        C  0.76161575  0.57213040  0.99897232    -0.12460
C300        C  0.77562300  0.55542682  0.02039285     0.01190
C301        C  0.76111545  0.53102745  0.03251859    -0.10990
C302        C  0.73259496  0.52312506  0.02271673     0.03680
C303        C  0.71715223  0.54225508  0.00373679    -0.10410
H304        H  0.77445803  0.58946294  0.98847980     0.09270
H305        H  0.77260580  0.51753419  0.04855073     0.06800
H306        H  0.69422819  0.53743547  0.99809197     0.06650
C307        C  0.66597677  0.36756039  0.97673319     0.03690
C308        C  0.68115987  0.39385524  0.98361953    -0.12460
C309        C  0.66994059  0.41350414  0.00528493     0.01190
C310        C  0.64061062  0.40773171  0.01532930    -0.10990
C311        C  0.62141079  0.38999026  0.99845100     0.03680
C312        C  0.63449638  0.36731955  0.98087374    -0.10410
H313        H  0.70246311  0.39721784  0.97300744     0.09270
H314        H  0.63104526  0.41962957  0.03375763     0.06800
H315        H  0.62078120  0.35004018  0.97129174     0.06650
C316        C  0.77243693  0.65842208  0.86209358     0.03690
C317        C  0.78231845  0.63737560  0.84067281    -0.12460
C318        C  0.76940724  0.60847468  0.84029963     0.01190
C319        C  0.74976812  0.60078000  0.86351737    -0.10990
C320        C  0.73980385  0.62156547  0.88417764     0.03680
C321        C  0.74889113  0.65083815  0.88103191    -0.10410
H322        H  0.79958364  0.64326069  0.82490401     0.09270
H323        H  0.74323170  0.57801574  0.86643869     0.06800
H324        H  0.74078628  0.66704000  0.89687359     0.06650
C325        C  0.40718304  0.24119898  0.12259599     0.03690
C326        C  0.40269641  0.25414508  0.09428481    -0.12460
C327        C  0.37914078  0.24345754  0.07596079     0.01190
C328        C  0.36020775  0.22139894  0.08618382    -0.10990
C329        C  0.36267710  0.21108544  0.11464749     0.03680
C330        C  0.38746138  0.21860809  0.13160458    -0.10410
H331        H  0.41646311  0.27245209  0.08711883     0.09270
H332        H  0.34050405  0.21527922  0.07344879     0.06800
H333        H  0.38834639  0.20987926  0.15383726     0.06650
C334        C  0.24201630  0.20527783  0.22265925     0.03690
C335        C  0.25519796  0.18997155  0.19951672    -0.12460
C336        C  0.24893010  0.19799757  0.17066736     0.01190
C337        C  0.22391261  0.21567215  0.16480753    -0.10990
C338        C  0.21034979  0.23159076  0.18808583     0.03680
C339        C  0.22067266  0.22674029  0.21709899    -0.10410
H340        H  0.27379598  0.17534192  0.20400996     0.09270
H341        H  0.21796212  0.21963555  0.14207581     0.06800
H342        H  0.21251694  0.23979275  0.23556738     0.06650
C343        C  0.15996926  0.38289168  0.22971501     0.03690
C344        C  0.13054651  0.38036757  0.24151849    -0.12460
C345        C  0.11006656  0.36004752  0.22853888     0.01190
C346        C  0.11898748  0.34331351  0.20399648    -0.10990
C347        C  0.14911594  0.34147475  0.19666635     0.03680
C348        C  0.16881889  0.36263428  0.20751442    -0.10410
H349        H  0.12412808  0.39292591  0.26095385     0.09270
H350        H  0.10418765  0.32618324  0.19555978     0.06800
H351        H  0.19205912  0.36085635  0.20080899     0.06650
C352        C  0.26940611  0.14074243  0.37779900     0.03690
C353        C  0.27667328  0.16059007  0.35558297    -0.12460
C354        C  0.28088435  0.15105167  0.32697832     0.01190
C355        C  0.28172799  0.12114375  0.32044894    -0.10990
C356        C  0.27416657  0.10010927  0.34174655     0.03680
C357        C  0.26780156  0.10991075  0.37117936    -0.10410
H358        H  0.27604278  0.18417586  0.35987955     0.09270
H359        H  0.28413151  0.11455784  0.29743012     0.06800
H360        H  0.26167777  0.09427913  0.38815517     0.06650
O361        O  0.29301230  0.78892309  0.51449047    -0.87790
C362        C  0.27787546  0.70087972  0.52888932     0.88240
Mg363      Mg  0.25924645  0.81894617  0.50090917     1.58150
O364        O  0.31452480  0.71890211  0.46295855    -0.87520
O365        O  0.33759616  0.77386330  0.50125507    -0.74850
C366        C  0.18464792  0.74756218  0.39438557     0.93290
O367        O  0.23192932  0.75928302  0.53966693    -0.74660
O368        O  0.18026589  0.76998319  0.41091679    -0.82170
Mg369      Mg  0.28132229  0.76176856  0.55273621     1.57960
C370        C  0.28160726  0.67048244  0.38711995     0.93210
O371        O  0.32896030  0.76390413  0.57006527    -0.80430
H372        H  0.34879341  0.73556962  0.43969823    -0.05780
C373        C  0.22494396  0.70468382  0.45870194     0.88150
O374        O  0.27207313  0.81453278  0.45142732    -0.74940
O375        O  0.29160883  0.72431356  0.52495543    -0.87710
O376        O  0.30048544  0.67412503  0.40800626    -0.80520
C377        C  0.34562099  0.65534394  0.49199204     0.93330
C378        C  0.35370993  0.75007432  0.57090075     0.93180
Mg379      Mg  0.25725651  0.73460321  0.40945581     1.57950
O380        O  0.20761894  0.73132794  0.39787865    -0.80440
O381        O  0.30843472  0.73825290  0.41904864    -0.74680
O382        O  0.33624439  0.67299799  0.51189779    -0.80520
O383        O  0.26832666  0.80056676  0.58496247    -0.82230
O384        O  0.20024497  0.82890669  0.45123759    -0.80550
C385        C  0.32502665  0.73108257  0.44076854     0.87620
O386        O  0.24936650  0.77487104  0.43475455    -0.87690
O387        O  0.25034845  0.70877772  0.44839523    -0.87800
O388        O  0.20656301  0.72589063  0.46254057    -0.74850
Mg389      Mg  0.33571853  0.72339037  0.50637088     1.57970
O390        O  0.33055945  0.65171825  0.46840801    -0.82230
H391        H  0.32566808  0.81697273  0.50311059    -0.05950
O392        O  0.22828863  0.78238536  0.49741610    -0.87500
H393        H  0.19268892  0.76583603  0.51855020    -0.05780
H394        H  0.27458435  0.80046140  0.40871112    -0.05950
C395        C  0.21656416  0.76946733  0.51852876     0.87590
C396        C  0.31893734  0.79432738  0.50646349     0.88180
C397        C  0.26548586  0.79669480  0.43055497     0.88230
H398        H  0.21811076  0.68257754  0.46449768    -0.05930
O399        O  0.27446737  0.68200845  0.50808982    -0.74960
Mg400      Mg  0.20580469  0.77699721  0.45566182     1.58000
H401        H  0.26872933  0.69620988  0.55053248    -0.05950
C402        C  0.25201754  0.82196956  0.57688667     0.93210
O403        O  0.22175959  0.85080649  0.48977238    -0.82190
C404        C  0.19976360  0.84820924  0.47213440     0.93270
O405        O  0.35921670  0.72932741  0.55255249    -0.82170
Mg406      Mg  0.28804728  0.67971498  0.45829746     1.58180
O407        O  0.24830508  0.82710196  0.54944638    -0.80510
O408        O  0.26296108  0.69091514  0.38181891    -0.82200
C409        C  0.14245263  0.91076576  0.76267695     0.03690
C410        C  0.15997547  0.89715160  0.78421076    -0.12460
C411        C  0.15476784  0.86793633  0.79114052     0.01190
C412        C  0.12667069  0.85615422  0.78584766    -0.10990
C413        C  0.10805280  0.86842027  0.76394755     0.03680
C414        C  0.11638497  0.89612998  0.75180608    -0.10410
H415        H  0.18194704  0.90616982  0.78933796     0.09270
H416        H  0.12279422  0.83401124  0.79388871     0.06800
H417        H  0.10451768  0.90483898  0.73296403     0.06650
C418        C  0.25629641  0.74068291  0.74440593     0.03690
C419        C  0.24334185  0.76017290  0.76510127    -0.12460
C420        C  0.25276768  0.78949156  0.76704502     0.01190
C421        C  0.27888852  0.79847879  0.75254922    -0.10990
C422        C  0.29242184  0.77949652  0.73213801     0.03680
C423        C  0.27939779  0.75173453  0.72644541    -0.10410
H424        H  0.22468395  0.75339567  0.77881499     0.09270
H425        H  0.28698894  0.82083321  0.75537268     0.06800
H426        H  0.28817547  0.73875649  0.70836677     0.06650
C427        C  0.42297058  0.75953996  0.62151662     0.03690
C428        C  0.40512349  0.74924370  0.59751098    -0.12460
C429        C  0.37486881  0.75865877  0.59512375     0.01190
C430        C  0.36278741  0.77590400  0.61817749    -0.10990
C431        C  0.37974871  0.78418524  0.64256750     0.03680
C432        C  0.41029085  0.77836525  0.64276025    -0.10410
H433        H  0.41439547  0.73393447  0.58148836     0.09270
H434        H  0.33901323  0.78060033  0.61884378     0.06800
H435        H  0.42298823  0.78430254  0.66234972     0.06650
C436        C  0.26473095  0.64662396  0.86270441     0.03690
C437        C  0.25251286  0.66054108  0.83780886    -0.12460
C438        C  0.24567181  0.64494264  0.81217982     0.01190
C439        C  0.24915823  0.61468075  0.81149228    -0.10990
C440        C  0.26283774  0.60009231  0.83499437     0.03680
C441        C  0.27127897  0.61608260  0.86087932    -0.10410
H442        H  0.24985333  0.68431280  0.83765725     0.09270
H443        H  0.24476490  0.60302625  0.79090642     0.06800
H444        H  0.28230574  0.60507010  0.87896712     0.06650
O445        O  0.77643781  0.69042496  0.52094510    -0.87790
C446        C  0.80121322  0.77698901  0.51555894     0.88240
Mg447      Mg  0.76727445  0.66364816  0.48272212     1.58150
O448        O  0.72811296  0.76292299  0.53951893    -0.87520
O449        O  0.75726264  0.70367867  0.56346018    -0.74850
C450        C  0.67707696  0.74318060  0.39779397     0.93290
O451        O  0.81391564  0.72228803  0.46956644    -0.74660
O452        O  0.69499575  0.72161440  0.39416729    -0.82170
Mg453      Mg  0.81855948  0.71537236  0.51997562     1.57960
C454        C  0.66234151  0.81459335  0.49958557     0.93210
O455        O  0.82534436  0.70857518  0.57089912    -0.80430
H456        H  0.69839971  0.74491640  0.56729792    -0.05780
C457        C  0.73710403  0.78041177  0.45049891     0.88150
O458        O  0.71600350  0.66894517  0.48745995    -0.74940
O459        O  0.79251786  0.75427357  0.52801601    -0.87710
O460        O  0.68151568  0.81001844  0.51983335    -0.80520
C461        C  0.76277316  0.82853525  0.57312912     0.93330
C462        C  0.82825260  0.72860136  0.59080903     0.93180
Mg463      Mg  0.68188660  0.75105682  0.47366733     1.57950
O464        O  0.67422045  0.75551814  0.42322178    -0.80440
O465        O  0.68531128  0.74461502  0.52428931    -0.74680
O466        O  0.77159096  0.80213188  0.57605917    -0.80520
O467        O  0.85025803  0.67593031  0.50812522    -0.82230
O468        O  0.72458115  0.66002609  0.42104598    -0.80550
C469        C  0.70386202  0.75076082  0.54476813     0.87620
O470        O  0.70555058  0.71085290  0.46602252    -0.87690
O471        O  0.72394727  0.77440740  0.47387152    -0.87800
O472        O  0.74286943  0.76074207  0.43105323    -0.74850
Mg473      Mg  0.76545362  0.75366723  0.56725967     1.57970
O474        O  0.74367471  0.83475692  0.55314024    -0.82230
H475        H  0.75737199  0.66141156  0.54834494    -0.05950
O476        O  0.77084666  0.70264309  0.45615047    -0.87500
H477        H  0.79927076  0.72070313  0.42710274    -0.05780
H478        H  0.67381355  0.68512598  0.48373323    -0.05950
C479        C  0.79478394  0.71511652  0.44990512     0.87590
C480        C  0.76362123  0.68407061  0.54429103     0.88180
C481        C  0.69735113  0.68828349  0.47902794     0.88230
H482        H  0.74409489  0.80287207  0.44658411    -0.05930
O483        O  0.78300732  0.79666204  0.50704970    -0.74960
Mg484      Mg  0.73357913  0.71055325  0.42694074     1.58000
H485        H  0.82484157  0.77978725  0.51106221    -0.05950
C486        C  0.84333901  0.65860105  0.48693462     0.93210
O487        O  0.76181809  0.63516478  0.44054029    -0.82190
C488        C  0.74500567  0.64054427  0.41861087     0.93270
O489        O  0.80732628  0.74687812  0.59574145    -0.82170
Mg490      Mg  0.73218920  0.80245629  0.51294785     1.58180
O491        O  0.81626504  0.65596480  0.47897151    -0.80510
O492        O  0.65719990  0.79518064  0.47981202    -0.82200
C493        C  0.90279149  0.14457159  0.24466705     0.03690
C494        C  0.88373112  0.16487173  0.25831653    -0.12460
C495        C  0.85319477  0.16190445  0.25562531     0.01190
C496        C  0.84099379  0.13610498  0.24472920    -0.10990
C497        C  0.85898754  0.11273764  0.23490456     0.03680
C498        C  0.89058015  0.11770372  0.23267382    -0.10410
H499        H  0.89241505  0.18592208  0.26619137     0.09270
H500        H  0.81676387  0.13462180  0.24313893     0.06800
H501        H  0.90492205  0.10159801  0.22212117     0.06650
C502        C  0.76647648  0.25305249  0.24244925     0.03690
C503        C  0.75438208  0.25361469  0.21376096    -0.12460
C504        C  0.73185326  0.27367735  0.20684925     0.01190
C505        C  0.71754622  0.28915464  0.22929305    -0.10990
C506        C  0.72792861  0.28721660  0.25809423     0.03680
C507        C  0.75386987  0.27128455  0.26427160    -0.10410
H508        H  0.76413846  0.24056270  0.19608936     0.09270
H509        H  0.69851602  0.30288505  0.22425701     0.06800
H510        H  0.76228647  0.27114280  0.28668292     0.06650
C511        C  0.74890506  0.39583303  0.10994703     0.03690
C512        C  0.72654876  0.37503747  0.11737035    -0.12460
C513        C  0.72738295  0.34662603  0.10568246     0.01190
C514        C  0.74247376  0.34160341  0.07953294    -0.10990
C515        C  0.76372965  0.36187226  0.06961827     0.03680
C516        C  0.76806131  0.38897644  0.08546384    -0.10410
H517        H  0.71338630  0.37782934  0.13737848     0.09270
H518        H  0.74209341  0.31946828  0.07028288     0.06800
H519        H  0.78633480  0.40357484  0.07963734     0.06650
C520        C  0.60014735  0.26912330  0.35661108     0.03690
C521        C  0.61418600  0.29561949  0.34815180    -0.12460
C522        C  0.64448137  0.29897986  0.35356416     0.01190
C523        C  0.65620604  0.28559455  0.37840785    -0.10990
C524        C  0.64189966  0.26077080  0.39018129     0.03680
C525        C  0.61380818  0.25171466  0.37874373    -0.10410
H526        H  0.60503813  0.30827270  0.33004098     0.09270
H527        H  0.67948038  0.28987918  0.38389469     0.06800
H528        H  0.60450502  0.23048196  0.38464184     0.06650
O529        O  0.47143805  0.21554165  0.21885563    -0.87790
C530        C  0.46380216  0.30723505  0.22298065     0.88240
Mg531      Mg  0.47648250  0.18580675  0.25648203     1.58150
O532        O  0.53118100  0.27828551  0.19631044    -0.87520
O533        O  0.49127012  0.22593652  0.17565778    -0.74850
C534        C  0.57940252  0.25677676  0.33419536     0.93290
O535        O  0.44034457  0.25183771  0.27133380    -0.74660
O536        O  0.55866482  0.23848913  0.34020734    -0.82170
Mg537      Mg  0.43527166  0.24707355  0.22098584     1.57960
C538        C  0.60828824  0.31785473  0.23210544     0.93210
O539        O  0.42497422  0.24303251  0.17178309    -0.80430
H540        H  0.55555899  0.25499215  0.16708366    -0.05780
C541        C  0.52686143  0.29960023  0.28269690     0.88150
O542        O  0.52748425  0.18474700  0.24873832    -0.74940
O543        O  0.46654736  0.28250602  0.21155652    -0.87710
O544        O  0.58883588  0.31345386  0.21204338    -0.80520
C545        C  0.51351089  0.34529122  0.15812694     0.93330
C546        C  0.42872078  0.25229219  0.14548384     0.93180
Mg547      Mg  0.57667231  0.26036796  0.25924899     1.57950
O548        O  0.58430732  0.26483578  0.30775559    -0.80440
O549        O  0.57124084  0.25342649  0.20894781    -0.74680
O550        O  0.49136535  0.32739497  0.15982383    -0.80520
O551        O  0.40311911  0.20865405  0.22721445    -0.82230
O552        O  0.51851438  0.18080054  0.31822841    -0.80550
C553        C  0.55254880  0.26209950  0.18969726     0.87620
O554        O  0.54511440  0.22545313  0.26836414    -0.87690
O555        O  0.54024517  0.29144829  0.26004510    -0.87800
O556        O  0.51693330  0.28134575  0.30172210    -0.74850
Mg557      Mg  0.49095342  0.27637050  0.17033217     1.57970
O558        O  0.53457315  0.34457255  0.17704880    -0.82230
H559        H  0.48591488  0.18440223  0.19079186    -0.05950
O560        O  0.47924378  0.22507675  0.28307920    -0.87500
H561        H  0.45424547  0.24569887  0.31352868    -0.05780
H562        H  0.57173675  0.19510580  0.24986545    -0.05950
C563        C  0.45773232  0.24064413  0.29037342     0.87590
C564        C  0.48273399  0.20756710  0.19508438     0.88180
C565        C  0.54919469  0.20155938  0.25571480     0.88230
H566        H  0.52301665  0.32287554  0.28617992    -0.05930
O567        O  0.48647935  0.32367900  0.22801647    -0.74960
Mg568      Mg  0.51840848  0.23077161  0.30871466     1.58000
H569        H  0.44170962  0.31506232  0.22879101    -0.05950
C570        C  0.40510374  0.18501053  0.24205875     0.93210
O571        O  0.48513387  0.15208987  0.29593979    -0.82190
C572        C  0.50630647  0.15540498  0.31467659     0.93270
O573        O  0.44951861  0.27063447  0.13971538    -0.82170
Mg574      Mg  0.53762798  0.31794641  0.22021035     1.58180
O575        O  0.42442084  0.18248262  0.26269011    -0.80510
O576        O  0.61065166  0.29924735  0.25285306    -0.82200
O577        O  0.75759643  0.30480715  0.96760136    -0.87790
C578        C  0.76427220  0.25799260  0.04623388     0.88240
Mg579      Mg  0.72594432  0.29378241  0.93186809     1.58150
O580        O  0.82616985  0.25365764  0.99843861    -0.87520
O581        O  0.80401207  0.31617345  0.97979840    -0.74850
C582        C  0.76057720  0.15381184  0.90914675     0.93290
O583        O  0.70745008  0.26778001  0.00182261    -0.74660
O584        O  0.73992681  0.17192914  0.90268119    -0.82170
Mg585      Mg  0.73933956  0.30660877  0.01139328     1.57960
C586        C  0.85773263  0.16897137  0.98220429     0.93210
O587        O  0.77113663  0.34529999  0.02080217    -0.80430
H588        H  0.85920454  0.27135708  0.97425813    -0.05780
C589        C  0.76145672  0.18768981  0.99058840     0.88150
O590        O  0.76560923  0.27152074  0.90673668    -0.74940
O591        O  0.77262631  0.27670870  0.02824493    -0.87710
O592        O  0.85654393  0.19254586  0.99739059    -0.80520
C593        C  0.84962823  0.24614145  0.07412842     0.93330
C594        C  0.78291846  0.34986424  0.04585526     0.93180
Mg595      Mg  0.80585468  0.19790840  0.94296554     1.57950
O596        O  0.77546774  0.15742472  0.93278357    -0.80440
O597        O  0.83773940  0.23727312  0.95382757    -0.74680
O598        O  0.83811805  0.27146676  0.06876979    -0.80520
O599        O  0.70420396  0.33823514  0.99577254    -0.82230
O600        O  0.71736964  0.23735373  0.88657294    -0.80550
C601        C  0.84176892  0.25483306  0.97569421     0.87620
O602        O  0.77286105  0.22866074  0.92731376    -0.87690
O603        O  0.78463838  0.20167052  0.98470846    -0.87800
O604        O  0.73828630  0.18888042  0.97417012    -0.74850
Mg605      Mg  0.81791738  0.29310958  0.02427259     1.57970
O606        O  0.84436730  0.22399202  0.05766607    -0.82230
H607        H  0.78344554  0.33082111  0.94254740    -0.05950
O608        O  0.71686045  0.25325820  0.95609530    -0.87500
H609        H  0.68621314  0.23358890  0.98175010    -0.05780
H610        H  0.79801810  0.24283887  0.89351496    -0.05950
C611        C  0.70270773  0.25092752  0.97966141     0.87590
C612        C  0.78156824  0.31766549  0.96231686     0.88180
C613        C  0.77976156  0.24728923  0.90864819     0.88230
H614        H  0.76083787  0.17417947  0.01018725    -0.05930
O615        O  0.77560981  0.23240089  0.04640806    -0.74960
Mg616      Mg  0.72768396  0.21346112  0.93053123     1.58000
H617        H  0.74637009  0.26322843  0.06152471    -0.05950
C618        C  0.68561433  0.34091522  0.97472363     0.93210
O619        O  0.69230956  0.27825595  0.89503528    -0.82190
C620        C  0.69435600  0.25315708  0.88223377     0.93270
O621        O  0.80575723  0.33473583  0.05276710    -0.82170
Mg622      Mg  0.81478707  0.21292205  0.01992062     1.58180
O623        O  0.68608039  0.32336572  0.95237355    -0.80510
O624        O  0.84021729  0.16496161  0.96045549    -0.82200
C625        C  0.17053510  0.85795996  0.48456537     0.03690
C626        C  0.16168871  0.84142767  0.50898856    -0.12460
C627        C  0.13192078  0.84029188  0.51771630     0.01190
C628        C  0.11216375  0.86136547  0.50706160    -0.10990
C629        C  0.12133745  0.88236904  0.48584187     0.03680
C630        C  0.15052804  0.87936232  0.47305583    -0.10410
H631        H  0.17694878  0.82526431  0.51804470     0.09270
H632        H  0.08905233  0.86019511  0.51428329     0.06800
H633        H  0.15736855  0.89307359  0.45472234     0.06650
C634        C  0.04498081  0.72848057  0.47939193     0.03690
C635        C  0.06856768  0.73435239  0.49886037    -0.12460
C636        C  0.06455571  0.75206723  0.52448731     0.01190
C637        C  0.03560712  0.76284043  0.52998908    -0.10990
C638        C  0.01167135  0.75498059  0.51182680     0.03680
C639        C  0.01666668  0.74003257  0.48536793    -0.10410
H640        H  0.08964281  0.72415243  0.49373971     0.09270
H641        H  0.03033585  0.77505549  0.54982902     0.06800
H642        H  0.99775451  0.73370204  0.47172704     0.06650
C643        C  0.89722889  0.75427482  0.63612456     0.03690
C644        C  0.91595208  0.75933206  0.61184863    -0.12460
C645        C  0.90757326  0.75101271  0.58349576     0.01190
C646        C  0.87949995  0.73949604  0.57812655    -0.10990
C647        C  0.85884993  0.73608979  0.60110992     0.03680
C648        C  0.86777379  0.74295793  0.63077403    -0.10410
H649        H  0.93874981  0.76703003  0.61513210     0.09270
H650        H  0.87369913  0.73348605  0.55557749     0.06800
H651        H  0.85242163  0.73943451  0.64900728     0.06650
C652        C  0.02538337  0.63815096  0.33930207     0.03690
C653        C  0.01725632  0.60850415  0.34571959    -0.12460
C654        C  0.02945669  0.59486281  0.37131441     0.01190
C655        C  0.04941393  0.61077184  0.38925604    -0.10990
C656        C  0.05143304  0.64119627  0.38670592     0.03680
C657        C  0.04101955  0.65429848  0.36106696    -0.10410
H658        H  0.00198945  0.59652975  0.33147159     0.09270
H659        H  0.05813526  0.60076030  0.40918122     0.06800
H660        H  0.04319608  0.67802544  0.35917245     0.06650
O661        O  0.04724657  0.00435951  0.43847755    -0.87790
C662        C  0.95727308  0.00066911  0.42206683     0.88240
Mg663      Mg  0.07373947  0.96487117  0.44646687     1.58150
O664        O  0.97794691  0.02883297  0.49196036    -0.87520
O665        O  0.03703467  0.04767558  0.45746459    -0.74850
C666        C  0.00125296  0.89903477  0.55503890     0.93290
O667        O  0.01187585  0.95301890  0.40525119    -0.74660
O668        O  0.01770820  0.89247455  0.53287887    -0.82170
Mg669      Mg  0.01981466  0.00333299  0.39939487     1.57960
C670        C  0.93530768  0.00542298  0.56912402     0.93210
O671        O  0.02555555  0.05297415  0.38841667    -0.80430
H672        H  0.99914242  0.05942772  0.51618418    -0.05780
C673        C  0.95391739  0.94263141  0.49266301     0.88150
O674        O  0.07163257  0.97384953  0.49682701    -0.74940
O675        O  0.98128262  0.01359166  0.42671606    -0.87710
O676        O  0.93074368  0.01223937  0.54220478    -0.80520
C677        C  0.91074883  0.06384971  0.46272376     0.93330
C678        C  0.01453296  0.07878679  0.39184318     0.93180
Mg679      Mg  0.99134175  0.96916511  0.54205085     1.57950
O680        O  0.98206090  0.91979061  0.55352687    -0.80440
O681        O  0.00053858  0.01836759  0.53366537    -0.74680
O682        O  0.93621010  0.06493140  0.44979411    -0.80520
O683        O  0.06274692  0.99523689  0.37209316    -0.82230
O684        O  0.07309129  0.90374030  0.48993100    -0.80550
C685        C  0.99242503  0.03660238  0.51401461     0.87620
O686        O  0.02824983  0.95715459  0.51251480    -0.87690
O687        O  0.96244775  0.96629770  0.50345883    -0.87800
O688        O  0.97230600  0.92262385  0.48508067    -0.74850
Mg689      Mg  0.98594209  0.05392131  0.45275254     1.57970
O690        O  0.90585845  0.04518463  0.48313953    -0.82230
H691        H  0.07908332  0.03090291  0.45479209    -0.05950
O692        O  0.03168988  0.94042577  0.44762282    -0.87500
H693        H  0.01133988  0.91116398  0.42110172    -0.05780
H694        H  0.05836051  0.97523900  0.53983272    -0.05950
C695        C  0.01812995  0.93379413  0.42469226     0.87590
C696        C  0.05556291  0.02766358  0.45019541     0.88180
C697        C  0.05287664  0.96874418  0.51745536     0.88230
H698        H  0.93026040  0.93910176  0.48902485    -0.05930
O699        O  0.93896172  0.99477827  0.44289165    -0.74960
Mg700      Mg  0.02338355  0.91633757  0.48826478     1.58000
H701        H  0.95195280  0.99370065  0.39978023    -0.05950
C702        C  0.08332094  0.97641869  0.37628773     0.93210
O703        O  0.10336281  0.92360871  0.45647243    -0.82190
C704        C  0.09844397  0.90479956  0.47681344     0.93270
O705        O  0.99517732  0.08378946  0.41199562    -0.82170
Mg706      Mg  0.93635288  0.00434638  0.49317946     1.58180
O707        O  0.07989040  0.95641493  0.39578266    -0.80510
O708        O  0.95382535  0.98508614  0.57553925    -0.82200
C709        C  0.87607102  0.02020384  0.62874735     0.03690
C710        C  0.90339398  0.00841444  0.61725377    -0.12460
C711        C  0.91623462  0.02147644  0.59140072     0.01190
C712        C  0.90243063  0.04697468  0.58013651    -0.10990
C713        C  0.87246885  0.05183317  0.58655631     0.03680
C714        C  0.86168353  0.04281576  0.61360893    -0.10410
H715        H  0.91253396  0.98833894  0.62624759     0.09270
H716        H  0.91082198  0.05687957  0.55996125     0.06800
H717        H  0.83887442  0.04873773  0.61956074     0.06650
C718        C  0.78230030  0.01683092  0.44235178     0.03690
C719        C  0.79402983  0.03408145  0.46533276    -0.12460
C720        C  0.78803629  0.02662739  0.49455389     0.01190
C721        C  0.76795326  0.00382783  0.50095309    -0.10990
C722        C  0.75644228  0.98645393  0.47812296     0.03680
C723        C  0.76451830  0.99240931  0.44894227    -0.10410
H724        H  0.80897880  0.05234859  0.46061961     0.09270
H725        H  0.76383778  0.99770456  0.52375870     0.06800
H726        H  0.75578786  0.97877799  0.43116060     0.06650
C727        C  0.75624139  0.11466190  0.31268203     0.03690
C728        C  0.74735580  0.13716387  0.33329115    -0.12460
C729        C  0.76219824  0.13929663  0.36117578     0.01190
C730        C  0.78264763  0.11697470  0.36838253    -0.10990
C731        C  0.78829757  0.09356558  0.34938777     0.03680
C732        C  0.77852371  0.09469447  0.32059835    -0.10410
H733        H  0.72956822  0.15227977  0.32782572     0.09270
H734        H  0.79113298  0.11518973  0.39076004     0.06800
H735        H  0.78309443  0.07571515  0.30673022     0.06650
C736        C  0.61685871  0.88230266  0.47741231     0.03690
C737        C  0.62249143  0.85302847  0.48650847    -0.12460
C738        C  0.65172232  0.84504019  0.49547739     0.01190
C739        C  0.67380241  0.86677198  0.49744186    -0.10990
C740        C  0.66857837  0.89497601  0.48705905     0.03680
C741        C  0.64057863  0.90231422  0.47602448    -0.10410
H742        H  0.60476478  0.83735294  0.48695141     0.09270
H743        H  0.69598545  0.86136726  0.50543723     0.06800
H744        H  0.63674701  0.92465797  0.46852528     0.06650
O745        O  0.48871237  0.94571305  0.51421533    -0.87790
C746        C  0.48849060  0.03508527  0.52683631     0.88240
Mg747      Mg  0.52698152  0.92023729  0.50444683     1.58150
O748        O  0.46058302  0.01387206  0.45678156    -0.87520
O749        O  0.44531280  0.95392042  0.49337332    -0.74850
C750        C  0.59121434  0.98941765  0.39543899     0.93290
O751        O  0.54285822  0.98577666  0.53987204    -0.74660
O752        O  0.59817648  0.96772345  0.41149274    -0.82170
Mg753      Mg  0.49331602  0.97667467  0.55089323     1.57960
C754        C  0.50014797  0.06295869  0.38421015     0.93210
O755        O  0.44572024  0.96923974  0.56522201    -0.80430
H756        H  0.42955395  0.99593113  0.43030743    -0.05780
C757        C  0.54977354  0.03472008  0.45963901     0.88150
O758        O  0.51506562  0.91967817  0.45447566    -0.74940
O759        O  0.47855466  0.01027394  0.52118168    -0.87710
O760        O  0.48040027  0.06563279  0.40475245    -0.80520
C761        C  0.42422321  0.07712587  0.48781949     0.93330
C762        C  0.41819835  0.97579384  0.56265248     0.93180
Mg763      Mg  0.52314864  0.00011204  0.41092435     1.57950
O764        O  0.57298657  0.00832565  0.40534174    -0.80440
O765        O  0.47206324  0.99337913  0.41429519    -0.74680
O766        O  0.42345157  0.05177076  0.49998980    -0.80520
O767        O  0.50983334  0.94223697  0.58578677    -0.82230
O768        O  0.58213106  0.91363457  0.45384451    -0.80550
C769        C  0.45293777  0.00107397  0.43375710     0.87620
O770        O  0.53141255  0.96207994  0.43833341    -0.87690
O771        O  0.52502719  0.02773563  0.44928914    -0.87800
O772        O  0.57039348  0.01565315  0.46367650    -0.74850
Mg773      Mg  0.43680156  0.00340471  0.49760616     1.57970
O774        O  0.44327922  0.08324604  0.46752185    -0.82230
H775        H  0.46264746  0.91314139  0.49902412    -0.05950
O776        O  0.55309316  0.95991426  0.49999094    -0.87500
H777        H  0.58418683  0.98374053  0.52116531    -0.05780
H778        H  0.51119369  0.93279172  0.41168956    -0.05950
C779        C  0.56115060  0.97639544  0.52039392     0.87590
C780        C  0.46538172  0.93657199  0.50263751     0.88180
C781        C  0.51891909  0.93814804  0.43371724     0.88230
H782        H  0.55419467  0.05758506  0.46496109    -0.05930
O783        O  0.49345640  0.05371316  0.50660356    -0.74960
Mg784      Mg  0.57508456  0.96426552  0.45794291     1.58000
H785        H  0.49373703  0.04082825  0.54948305    -0.05950
C786        C  0.53008094  0.92338344  0.57997885     0.93210
O787        O  0.56871034  0.89302257  0.49617292    -0.82190
C788        C  0.58682243  0.89533929  0.47464926     0.93270
O789        O  0.40926044  0.99169045  0.54112389    -0.82170
Mg790      Mg  0.48571870  0.05533868  0.45647397     1.58180
O791        O  0.53695863  0.91736014  0.55325058    -0.80510
O792        O  0.51709793  0.04065039  0.38323761    -0.82200
O793        O  0.46731096  0.02085913  0.98777528    -0.87790
C794        C  0.44899125  0.93237651  0.98616214     0.88240
Mg795      Mg  0.47318395  0.04742922  0.94792254     1.58150
O796        O  0.52151625  0.95201654  0.00951465    -0.87520
O797        O  0.48826411  0.01011836  0.03031514    -0.74850
C798        C  0.57863433  0.97711509  0.87686066     0.93290
O799        O  0.43130031  0.98580548  0.93769674    -0.74660
O800        O  0.55737764  0.99489635  0.87179039    -0.82170
Mg801      Mg  0.42745135  0.99415044  0.98821243     1.57960
C802        C  0.59717980  0.90667542  0.97488933     0.93210
O803        O  0.41869222  0.00061279  0.03770430    -0.80430
H804        H  0.54909314  0.97158608  0.03845079    -0.05780
C805        C  0.51561817  0.92944991  0.92182364     0.88150
O806        O  0.52476612  0.04531894  0.95425609    -0.74940
O807        O  0.45509175  0.95646348  0.99760209    -0.87710
O808        O  0.57162046  0.90315507  0.98727634    -0.80520
C809        C  0.49642848  0.89033638  0.04992097     0.93330
C810        C  0.42155502  0.98987296  0.06356019     0.93180
Mg811      Mg  0.56784145  0.96459756  0.94546146     1.57950
O812        O  0.57494873  0.95641401  0.89537224    -0.80440
O813        O  0.56389602  0.97259097  0.99590298    -0.74680
O814        O  0.47600546  0.90974957  0.04697932    -0.80520
O815        O  0.39900159  0.03611052  0.98156758    -0.82230
O816        O  0.51520817  0.04884717  0.88630373    -0.80550
C817        C  0.54491501  0.96539563  0.01569801     0.87620
O818        O  0.53829807  0.00207050  0.93734224    -0.87690
O819        O  0.52811691  0.93669342  0.94515599    -0.87800
O820        O  0.50849046  0.94844156  0.90245723    -0.74850
Mg821      Mg  0.48223643  0.96006564  0.03721952     1.57970
O822        O  0.51572040  0.88621340  0.02944897    -0.82230
H823        H  0.48617472  0.05145814  0.01389038    -0.05950
O824        O  0.47290539  0.00666523  0.92265553    -0.87500
H825        H  0.44528719  0.98559585  0.89484593    -0.05780
H826        H  0.56790614  0.03115032  0.95352491    -0.05950
C827        C  0.44978757  0.99256217  0.91731078     0.87590
C828        C  0.48056617  0.02854188  0.01063463     0.88180
C829        C  0.54477381  0.02622537  0.94845459     0.88230
H830        H  0.51053189  0.90646318  0.91780699    -0.05930
O831        O  0.46929257  0.91373407  0.97984232    -0.74960
Mg832      Mg  0.51291230  0.99921264  0.89712991     1.58000
H833        H  0.42591227  0.92711195  0.98122341    -0.05950
C834        C  0.40399925  0.05690543  0.96342544     0.93210
O835        O  0.48092847  0.07769538  0.90678358    -0.82190
C836        C  0.50154380  0.07356036  0.88767508     0.93270
O837        O  0.44173081  0.97078227  0.06878172    -0.82170
Mg838      Mg  0.52084853  0.91131629  0.98493982     1.58180
O839        O  0.42180150  0.05256091  0.94178956    -0.80510
O840        O  0.60087453  0.92612656  0.95500732    -0.82200
O841        O  0.82794767  0.73571095  0.94129792    -0.87790
C842        C  0.73934073  0.71444331  0.94566909     0.88240
Mg843      Mg  0.85083554  0.74079043  0.98370736     1.58150
O844        O  0.75328402  0.78797560  0.92359827    -0.87520
O845        O  0.81496396  0.75794995  0.90039875    -0.74850
C846        C  0.76711218  0.83112650  0.06633134     0.93290
O847        O  0.79379893  0.69557274  0.98936133    -0.74660
O848        O  0.78728198  0.81214624  0.07187152    -0.82170
Mg849      Mg  0.80262125  0.69520649  0.93856964     1.57960
C850        C  0.70022391  0.85372491  0.96892359     0.93210
O851        O  0.80813742  0.68942693  0.88707709    -0.80430
H852        H  0.77159014  0.81742167  0.89616779    -0.05780
C853        C  0.73108201  0.77642916  0.01101745     0.88150
O854        O  0.84790843  0.79163734  0.98051469    -0.74940
O855        O  0.76265801  0.72198641  0.93287755    -0.87710
O856        O  0.69870346  0.83413626  0.94835256    -0.80520
C857        C  0.68712143  0.75320005  0.89031556     0.93330
C858        C  0.78625180  0.68770586  0.86892182     0.93180
Mg859      Mg  0.76561771  0.82998000  0.99001332     1.57950
O860        O  0.75952353  0.83570142  0.03961868    -0.80440
O861        O  0.77296250  0.82931998  0.93953348    -0.74680
O862        O  0.71410833  0.74510603  0.88657965    -0.80520
O863        O  0.84649902  0.66767308  0.94548980    -0.82230
O864        O  0.84942414  0.78302158  0.04440030    -0.80550
C865        C  0.76588594  0.81173952  0.91868028     0.87620
O866        O  0.80369668  0.80343715  0.99807529    -0.87690
O867        O  0.73907920  0.79026096  0.98877267    -0.87800
O868        O  0.74958081  0.76800920  0.03042199    -0.74850
Mg869      Mg  0.76358510  0.75083252  0.89512527     1.57970
O870        O  0.68063525  0.77268777  0.90973755    -0.82230
H871        H  0.85768532  0.75695029  0.91589430    -0.05950
O872        O  0.80845185  0.73884519  0.00545673    -0.87500
H873        H  0.79071556  0.70857921  0.03243432    -0.05780
H874        H  0.83282966  0.83377510  0.98365587    -0.05950
C875        C  0.79731482  0.71432606  0.01017110     0.87590
C876        C  0.83464239  0.75036624  0.91923615     0.88180
C877        C  0.82816965  0.81070420  0.98740102     0.88230
H878        H  0.70789608  0.77050576  0.01376035    -0.05930
O879        O  0.71964678  0.73310608  0.95367577    -0.74960
Mg880      Mg  0.79967281  0.77514161  0.03651592     1.58000
H881        H  0.73579487  0.69142199  0.95061507    -0.05950
C882        C  0.86257911  0.67006547  0.96859358     0.93210
O883        O  0.87219283  0.74261467  0.03027133    -0.82190
C884        C  0.86647170  0.76156124  0.05015391     0.93270
O885        O  0.76968550  0.71006840  0.86504630    -0.82170
Mg886      Mg  0.71217009  0.78342807  0.94975354     1.58180
O887        O  0.85855153  0.69103444  0.98704803    -0.80510
O888        O  0.72367367  0.85691206  0.98450130    -0.82200
C889        C  0.87209716  0.14334580  0.99580575     0.03690
C890        C  0.85453161  0.12980592  0.01737947    -0.12460
C891        C  0.86307470  0.10329112  0.02974850     0.01190
C892        C  0.89174698  0.09273080  0.02440820    -0.10990
C893        C  0.90927183  0.10418158  0.00106759     0.03680
C894        C  0.89929830  0.13003935  0.98655312    -0.10410
H895        H  0.83213715  0.13804171  0.02179277     0.09270
H896        H  0.89756943  0.07208128  0.03478458     0.06800
H897        H  0.91183928  0.13906271  0.96815814     0.06650
C898        C  0.71661433  0.00491376  0.04466058     0.03690
C899        C  0.74041904  0.02351954  0.05273587    -0.12460
C900        C  0.75010026  0.04554559  0.03336032     0.01190
C901        C  0.73393106  0.05093933  0.00739754    -0.10990
C902        C  0.70956865  0.03299952  0.00003020     0.03680
C903        C  0.70015085  0.01098509  0.01934873    -0.10410
H904        H  0.75417260  0.01789812  0.07157987     0.09270
H905        H  0.74246235  0.06655503  0.99136370     0.06800
H906        H  0.68289596  0.99564255  0.01220382     0.06650
C907        C  0.74819748  0.88240317  0.13357301     0.03690
C908        C  0.76385022  0.86023263  0.11679539    -0.12460
C909        C  0.75126214  0.84955076  0.08950489     0.01190
C910        C  0.72461489  0.86285720  0.07954164    -0.10990
C911        C  0.71427463  0.88841677  0.09293432     0.03680
C912        C  0.72179254  0.89395997  0.12203351    -0.10410
H913        H  0.78566018  0.85279438  0.12386421     0.09270
H914        H  0.71592441  0.85800273  0.05770987     0.06800
H915        H  0.71175719  0.91314270  0.13255858     0.06650
C916        C  0.60941721  0.98688090  0.86981067     0.03690
C917        C  0.62420203  0.00092375  0.89318406    -0.12460
C918        C  0.65243563  0.01309127  0.88918958     0.01190
C919        C  0.66591820  0.01233976  0.86160828    -0.10990
C920        C  0.65246450  0.99769085  0.83765599     0.03680
C921        C  0.62396161  0.98432292  0.84183359    -0.10410
H922        H  0.61396623  0.00178218  0.91498641     0.09270
H923        H  0.68832360  0.02145855  0.85966975     0.06800
H924        H  0.61363454  0.97225989  0.82387191     0.06650
O925        O  0.78920755  0.96104820  0.69712241    -0.87790
C926        C  0.77144659  0.04736742  0.68080031     0.88240
Mg927      Mg  0.75122430  0.93213954  0.70508168     1.58150
O928        O  0.79803246  0.03284892  0.75239365    -0.87520
O929        O  0.82870576  0.97843431  0.72029312    -0.74850
C930        C  0.67083632  0.99636273  0.81018659     0.93290
O931        O  0.73267808  0.98903550  0.66409208    -0.74660
O932        O  0.66953966  0.97490348  0.79194463    -0.82170
Mg933      Mg  0.78465538  0.98794724  0.65829694     1.57960
C934        C  0.76560629  0.07479513  0.82681931     0.93210
O935        O  0.83695039  0.98982093  0.64752136    -0.80430
H936        H  0.83266503  0.02172094  0.77791636    -0.05780
C937        C  0.70897075  0.04458403  0.74866796     0.88150
O938        O  0.76107264  0.93656536  0.75581638    -0.74940
O939        O  0.78702420  0.02569989  0.68681283    -0.87710
O940        O  0.77349782  0.07845398  0.80007739    -0.80520
C941        C  0.82851770  0.09835925  0.72496075     0.93330
C942        C  0.85753550  0.00883966  0.65315608     0.93180
Mg943      Mg  0.74070464  0.01494779  0.80010594     1.57950
O944        O  0.69011142  0.01678955  0.80687633    -0.80440
O945        O  0.79180314  0.01404433  0.79620057    -0.74680
O946        O  0.82404550  0.07832387  0.70583124    -0.80520
O947        O  0.78152048  0.94591314  0.62981038    -0.82230
O948        O  0.70235256  0.92325944  0.75600524    -0.80550
C949        C  0.80863930  0.02310583  0.77552289     0.87620
O950        O  0.73844423  0.97714003  0.77110077    -0.87690
O951        O  0.73375877  0.04095377  0.76029655    -0.87800
O952        O  0.69209413  0.02284070  0.74196459    -0.74850
Mg953      Mg  0.82577355  0.02880135  0.71436831     1.57970
O954        O  0.80970909  0.10221686  0.74565784    -0.82230
H955        H  0.81947325  0.93473156  0.71585151    -0.05950
O956        O  0.72335151  0.97011554  0.70761164    -0.87500
H957        H  0.69072914  0.98504311  0.68146877    -0.05780
H958        H  0.76250542  0.95187034  0.79825622    -0.05950
C959        C  0.71444745  0.98158326  0.68452532     0.87590
C960        C  0.81273510  0.95702010  0.71093654     0.88180
C961        C  0.75433893  0.95530383  0.77607231     0.88230
H962        H  0.70160456  0.06669932  0.74385661    -0.05930
O963        O  0.76279840  0.06555014  0.70065768    -0.74960
Mg964      Mg  0.69735109  0.97252874  0.74823878     1.58000
H965        H  0.76487481  0.05086932  0.65810808    -0.05950
C966        C  0.76269605  0.92536044  0.63469259     0.93210
O967        O  0.71008640  0.90058597  0.71368604    -0.82190
C968        C  0.69557851  0.90294517  0.73787447     0.93270
O969        O  0.85650405  0.02525091  0.67586159    -0.82170
Mg970      Mg  0.76933908  0.07062321  0.75138958     1.58180
O971        O  0.74225110  0.92876845  0.65420010    -0.80510
O972        O  0.74682594  0.05466153  0.83336745    -0.82200
C973        C  0.17650115  0.02312817  0.85376924     0.03690
C974        C  0.16646913  0.04815046  0.83892284    -0.12460
C975        C  0.13694198  0.05665448  0.84201943     0.01190
C976        C  0.12178940  0.04920875  0.86775621    -0.10990
C977        C  0.13056102  0.02418852  0.88399368     0.03680
C978        C  0.15828321  0.01056543  0.87641706    -0.10410
H979        H  0.17821527  0.05529070  0.81911430     0.09270
H980        H  0.09957664  0.05838370  0.87040979     0.06800
H981        H  0.16421741  0.98953796  0.88589682     0.06650
C982        C  0.02577945  0.05234266  0.70764228     0.03690
C983        C  0.04701286  0.06164453  0.72836216    -0.12460
C984        C  0.07425443  0.04677510  0.73079844     0.01190
C985        C  0.08097388  0.02376468  0.71088714    -0.10990
C986        C  0.05926648  0.01410663  0.69084336     0.03680
C987        C  0.03229553  0.02917883  0.68844677    -0.10410
H988        H  0.04101288  0.07835759  0.74455716     0.09270
H989        H  0.10126171  0.01104420  0.71360446     0.06800
H990        H  0.01500925  0.02068690  0.67385534     0.06650
C991        C  0.89336518  0.15382673  0.73080935     0.03690
C992        C  0.86345246  0.14319799  0.73103595    -0.12460
C993        C  0.85810166  0.11285792  0.72501841     0.01190
C994        C  0.88236448  0.09416264  0.71912550    -0.10990
C995        C  0.91130872  0.10501651  0.71923021     0.03680
C996        C  0.91676990  0.13445736  0.72505935    -0.10410
H997        H  0.84501886  0.15799689  0.73561129     0.09270
H998        H  0.87890938  0.07082233  0.71499821     0.06800
H999        H  0.93975120  0.14238362  0.72484075     0.06650
C1000       C  0.02177449  0.85736375  0.62643175     0.03690
C1001       C  0.00758961  0.86266803  0.59875279    -0.12460
C1002       C  0.01192736  0.89039856  0.58465466     0.01190
C1003       C  0.02787717  0.91262350  0.59929331    -0.10990
C1004       C  0.04245295  0.90714655  0.62570875     0.03680
C1005       C  0.04201690  0.87880257  0.63715202    -0.10410
H1006       H  0.99294041  0.84625053  0.58899877     0.09270
H1007       H  0.02839203  0.93472291  0.59027105     0.06800
H1008       H  0.05427428  0.87535292  0.65747081     0.06650
O1009       O  0.98509183  0.79606245  0.71335811    -0.87790
C1010       C  0.99186213  0.70955276  0.68982615     0.88240
Mg1011     Mg  0.02381509  0.82329353  0.72219992     1.58150
O1012       O  0.96882152  0.72212148  0.76363489    -0.87520
O1013       O  0.94306503  0.78147362  0.73396318    -0.74850
C1014       C  0.11239846  0.74251558  0.80658115     0.93290
O1015       O  0.03572304  0.76583931  0.67282291    -0.74660
O1016       O  0.11627268  0.76244379  0.78724532    -0.82170
Mg1017     Mg  0.98460139  0.77186176  0.67203664     1.57960
C1018       C  0.01431156  0.67225892  0.83016003     0.93210
O1019       O  0.93260272  0.77748144  0.66807078    -0.80430
H1020       H  0.94096642  0.73907427  0.79397279    -0.05780
C1021       C  0.05775491  0.70399189  0.75053775     0.88150
O1022       O  0.01996881  0.81578412  0.77212412    -0.74940
O1023       O  0.97882258  0.73214531  0.69815196    -0.87710
O1024       O  0.99522425  0.67105163  0.80904137    -0.80520
C1025       C  0.93774425  0.65535545  0.72936768     0.93330
C1026       C  0.91251613  0.75739020  0.66539004     0.93180
Mg1027     Mg  0.03645428  0.73538267  0.80558235     1.57950
O1028       O  0.08658892  0.73125845  0.81069897    -0.80440
O1029       O  0.98490238  0.74083077  0.80547623    -0.74680
O1030       O  0.93311215  0.68159284  0.72056305    -0.80520
O1031       O  0.99347856  0.81389571  0.64272482    -0.82230
O1032       O  0.08992834  0.82059697  0.75653652    -0.80550
C1033       C  0.96379680  0.73402340  0.78782258     0.87620
O1034       O  0.04275475  0.77402338  0.78015934    -0.87690
O1035       O  0.03527112  0.71066454  0.76511413    -0.87800
O1036       O  0.07641430  0.72331662  0.74197435    -0.74850
Mg1037     Mg  0.93995833  0.73100171  0.72630358     1.57970
O1038       O  0.95742312  0.65030431  0.74898014    -0.82230
H1039       H  0.95706580  0.82415650  0.73342165    -0.05950
O1040       O  0.05075213  0.78365193  0.71549043    -0.87500
H1041       H  0.07934960  0.76806024  0.68510797    -0.05780
H1042       H  0.02613476  0.79876920  0.81301604    -0.05950
C1043       C  0.05634413  0.77267099  0.69096706     0.87590
C1044       C  0.96168968  0.80163222  0.72700724     0.88180
C1045       C  0.02992855  0.79631795  0.78950076     0.88230
H1046       H  0.06124997  0.68127030  0.74421344    -0.05930
O1047       O  0.00044107  0.69009326  0.70804575    -0.74960
Mg1048     Mg  0.08121597  0.77293068  0.75033790     1.58000
H1049       H  0.99645801  0.70645570  0.66651949    -0.05950
C1050       C  0.01354920  0.83344349  0.64794480     0.93210
O1051       O  0.06452139  0.85506105  0.73347865    -0.82190
C1052       C  0.08578914  0.84752839  0.75061303     0.93270
O1053       O  0.90979435  0.73745641  0.68493632    -0.82170
Mg1054     Mg  0.99672565  0.68314072  0.75860979     1.58180
O1055       O  0.02589158  0.83530153  0.67335135    -0.80510
O1056       O  0.03253066  0.69358778  0.83290357    -0.82200
C1057       C  0.02732325  0.84871445  0.12093174     0.03690
C1058       C  0.04993319  0.83368072  0.10573145    -0.12460
C1059       C  0.06455224  0.84623789  0.08175970     0.01190
C1060       C  0.05819913  0.87508401  0.07420699    -0.10990
C1061       C  0.03210823  0.88895703  0.08490515     0.03680
C1062       C  0.01711835  0.87627715  0.10979145    -0.10410
H1063       H  0.05546779  0.81130116  0.11199522     0.09270
H1064       H  0.07068039  0.88435458  0.05585064     0.06800
H1065       H  0.99769866  0.88686592  0.11944171     0.06650
C1066       C  0.08400421  0.74433200  0.01990754     0.03690
C1067       C  0.05843252  0.73187662  0.03304742    -0.12460
C1068       C  0.04544891  0.70646642  0.02092625     0.01190
C1069       C  0.05908057  0.69247459  0.99680208    -0.10990
C1070       C  0.08453300  0.70461913  0.98384056     0.03680
C1071       C  0.09721145  0.73053433  0.99546979    -0.10410
H1072       H  0.04711227  0.74344575  0.05089812     0.09270
H1073       H  0.04813925  0.67383670  0.98619792     0.06800
H1074       H  0.11544538  0.74135381  0.98388649     0.06650
C1075       C  0.13616021  0.73298497  0.82780172     0.03690
C1076       C  0.12869284  0.70812063  0.84495281    -0.12460
C1077       C  0.13979083  0.70535480  0.87343486     0.01190
C1078       C  0.16498258  0.72134399  0.88154529    -0.10990
C1079       C  0.17590175  0.74399293  0.86383141     0.03680
C1080       C  0.16064867  0.75102349  0.83717308    -0.10410
H1081       H  0.10960983  0.69443404  0.83917986     0.09270
H1082       H  0.17387723  0.71874659  0.90370003     0.06800
H1083       H  0.16659195  0.77070268  0.82505969     0.06650
C1084       C  0.90518577  0.60696568  0.00104656     0.03690
C1085       C  0.88597681  0.61970626  0.97988048    -0.12460
C1086       C  0.88815085  0.65032440  0.97517022     0.01190
C1087       C  0.91411817  0.66457619  0.98521975    -0.10990
C1088       C  0.92991926  0.65393062  0.00992261     0.03680
C1089       C  0.92027916  0.62618852  0.02030254    -0.10410
H1090       H  0.86979385  0.60636795  0.96801317     0.09270
H1091       H  0.92026396  0.68448846  0.97397679     0.06800
H1092       H  0.92716835  0.61755137  0.04120599     0.06650
O1093       O  0.96857167  0.02261428  0.95331027    -0.87790
C1094       C  0.05561961  0.04392039  0.96183963     0.88240
Mg1095     Mg  0.94277777  0.01398977  0.99285328     1.58150
O1096       O  0.03668398  0.97582804  0.92993304    -0.87520
O1097       O  0.97909059  0.00941173  0.90803830    -0.74850
C1098       C  0.01956099  0.91190503  0.06465349     0.93290
O1099       O  0.00101801  0.05551842  0.00696758    -0.74660
O1100       O  0.99914284  0.93016503  0.07213285    -0.82170
Mg1101     Mg  0.99268086  0.06319366  0.95663234     1.57960
C1102       C  0.08608514  0.90369621  0.95707762     0.93210
O1103       O  0.98714009  0.07449959  0.90675677    -0.80430
H1104       H  0.01655685  0.95121924  0.89888115    -0.05780
C1105       C  0.05848951  0.97230885  0.01787395     0.88150
O1106       O  0.94314916  0.96387472  0.98291158    -0.74940
O1107       O  0.03267013  0.03878706  0.94729743    -0.87710
O1108       O  0.07964402  0.92601152  0.94157921    -0.80520
C1109       C  0.10639672  0.00998965  0.90212929     0.93330
C1110       C  0.00648153  0.07824227  0.88610093     0.93180
Mg1111     Mg  0.02477471  0.92324496  0.98949529     1.57950
O1112       O  0.02944364  0.91110493  0.03810052    -0.80440
O1113       O  0.01694383  0.93246910  0.93960585    -0.74680
O1114       O  0.08022778  0.02033476  0.89911400    -0.80520
O1115       O  0.94826760  0.08927690  0.96630401    -0.82230
O1116       O  0.93809218  0.96812251  0.05307886    -0.80550
C1117       C  0.02323515  0.95327665  0.92176188     0.87620
O1118       O  0.98530920  0.94785068  0.00172814    -0.87690
O1119       O  0.04955939  0.96333394  0.99360670    -0.87800
O1120       O  0.04035391  0.97755693  0.03890741    -0.74850
Mg1121     Mg  0.03064262  0.01544342  0.90572480     1.57970
O1122       O  0.11064899  0.98778310  0.91859877    -0.82230
H1123       H  0.93685322  0.00895815  0.92512587    -0.05950
O1124       O  0.98333174  0.01155241  0.01734443    -0.87500
H1125       H  0.00292077  0.03720707  0.04790519    -0.05780
H1126       H  0.95579951  0.92086974  0.98207206    -0.05950
C1127       C  0.99607686  0.03461233  0.02512028     0.87590
C1128       C  0.96032641  0.01344690  0.92888193     0.88180
C1129       C  0.96129407  0.94312466  0.98885570     0.88230
H1130       H  0.08215259  0.97614692  0.02113545    -0.05930
O1131       O  0.07404263  0.02364327  0.96848618    -0.74960
Mg1132     Mg  0.98933260  0.97214730  0.04344113     1.58000
H1133       H  0.05973504  0.06610547  0.96972874    -0.05950
C1134       C  0.93419874  0.08500555  0.99033305     0.93210
O1135       O  0.91590460  0.00768542  0.03485922    -0.82190
C1136       C  0.91879158  0.98878142  0.05509894     0.93270
O1137       O  0.02624618  0.05896170  0.88058984    -0.82170
Mg1138     Mg  0.07694572  0.97430321  0.95603111     1.58180
O1139       O  0.94015780  0.06253355  0.00564925    -0.80510
O1140       O  0.06926985  0.89688755  0.97885284    -0.82200
O1141       O  0.04391141  0.46881813  0.02587070    -0.87790
C1142       C  0.02755501  0.45361836  0.93822885     0.88240
Mg1143     Mg  0.00506834  0.47531104  0.05414730     1.58150
O1144       O  0.05130521  0.52582445  0.95495899    -0.87520
O1145       O  0.08297018  0.49299679  0.00870332    -0.74850
C1146       C  0.92103116  0.57866838  0.99596109     0.93290
O1147       O  0.98905198  0.43482330  0.99567324    -0.74660
O1148       O  0.92394037  0.56043951  0.01683729    -0.82170
Mg1149     Mg  0.04120391  0.43061005  0.99828958     1.57960
C1150       C  0.00468674  0.59483887  0.91020494     0.93210
O1151       O  0.09446286  0.42326845  0.99861685    -0.80430
H1152       H  0.08362710  0.55455381  0.96594642    -0.05780
C1153       C  0.96046816  0.51856308  0.94370368     0.88150
O1154       O  0.01627025  0.52581261  0.04969517    -0.74940
O1155       O  0.04332372  0.45926690  0.96008949    -0.87710
O1156       O  0.02537702  0.57555683  0.91164416    -0.80520
C1157       C  0.08268957  0.50199668  0.88734249     0.93330
C1158       C  0.11383911  0.42669181  0.97787863     0.93180
Mg1159     Mg  0.98920524  0.57064559  0.97278533     1.57950
O1160       O  0.93719042  0.57607320  0.97296289    -0.80440
O1161       O  0.04123057  0.56997960  0.97166725    -0.74680
O1162       O  0.08119229  0.48147249  0.90635355    -0.80520
O1163       O  0.03701072  0.40198872  0.04086636    -0.82230
O1164       O  0.96047643  0.52504129  0.06474376    -0.80550
C1165       C  0.05989601  0.55007435  0.96430859     0.87620
O1166       O  0.99184597  0.54209560  0.01053732    -0.87690
O1167       O  0.98507279  0.53058537  0.94757828    -0.87800
O1168       O  0.94378836  0.51177533  0.96556561    -0.74850
Mg1169     Mg  0.08109621  0.48806705  0.95768929     1.57970
O1170       O  0.06236446  0.52138877  0.88638574    -0.82230
H1171       H  0.07370998  0.48848484  0.05251597    -0.05950
O1172       O  0.97865336  0.47786812  0.01537692    -0.87500
H1173       H  0.94679166  0.45139985  0.99878101    -0.05780
H1174       H  0.02070110  0.56730853  0.03342837    -0.05950
C1175       C  0.97035576  0.45482914  0.00302719     0.87590
C1176       C  0.06708854  0.48335183  0.03008346     0.88180
C1177       C  0.01001616  0.54603561  0.03103533     0.88230
H1178       H  0.95296981  0.51388837  0.92144906    -0.05930
O1179       O  0.01787839  0.47377658  0.92117490    -0.74960
Mg1180     Mg  0.95188142  0.51773982  0.01588630     1.58000
H1181       H  0.02166891  0.43093245  0.93356261    -0.05950
C1182       C  0.01587296  0.40493668  0.05975648     0.93210
O1183       O  0.96202559  0.48241330  0.08527412    -0.82190
C1184       C  0.94946311  0.50734310  0.08313897     0.93270
O1185       O  0.11219440  0.44864263  0.96061860    -0.82170
Mg1186     Mg  0.02191101  0.52488650  0.91766975     1.58180
O1187       O  0.99581669  0.42450800  0.05605003    -0.80510
O1188       O  0.98658905  0.59865533  0.93144726    -0.82200
C1189       C  0.00016927  0.60903569  0.88147912     0.03690
C1190       C  0.00716005  0.63873485  0.87527059    -0.12460
C1191       C  0.01905039  0.64491244  0.84706894     0.01190
C1192       C  0.02925405  0.62119148  0.83010573    -0.10990
C1193       C  0.01442514  0.59386449  0.83192086     0.03680
C1194       C  0.99761779  0.58928182  0.85776970    -0.10410
H1195       H  0.00417184  0.65596428  0.89167815     0.09270
H1196       H  0.04611332  0.62561931  0.81362652     0.06800
H1197       H  0.98441495  0.56976910  0.86131681     0.06650
C1198       C  0.03716180  0.49354803  0.69197340     0.03690
C1199       C  0.01978022  0.50826811  0.67109077    -0.12460
C1200       C  0.99426670  0.52365043  0.68038812     0.01190
C1201       C  0.98775841  0.52676878  0.71029900    -0.10990
C1202       C  0.00718207  0.51515119  0.73111767     0.03680
C1203       C  0.02971729  0.49616329  0.72212226    -0.10410
H1204       H  0.02494463  0.50672947  0.64774230     0.09270
H1205       H  0.96908192  0.54035703  0.71737133     0.06800
H1206       H  0.04360048  0.48617965  0.73889420     0.06650
C1207       C  0.16198023  0.38531877  0.72580440     0.03690
C1208       C  0.14870760  0.40297268  0.70450157    -0.12460
C1209       C  0.11846752  0.40008373  0.69851511     0.01190
C1210       C  0.10362410  0.37437089  0.70694213    -0.10990
C1211       C  0.11817128  0.35259702  0.72373989     0.03680
C1212       C  0.14698069  0.35933823  0.73548216    -0.10410
H1213       H  0.16014430  0.42281140  0.69713455     0.09270
H1214       H  0.08006744  0.37203614  0.70170709     0.06800
H1215       H  0.15745166  0.34483418  0.75126140     0.06650
C1216       C  0.85098679  0.51469945  0.60759405     0.03690
C1217       C  0.86857183  0.53935163  0.61513525    -0.12460
C1218       C  0.89628073  0.54290260  0.60184563     0.01190
C1219       C  0.90057621  0.53197785  0.57353287    -0.10990
C1220       C  0.88314587  0.50827175  0.56351005     0.03680
C1221       C  0.85809829  0.49894395  0.58093814    -0.10410
H1222       H  0.86521075  0.55042884  0.63622107     0.09270
H1223       H  0.92201826  0.53639655  0.56302373     0.06800
H1224       H  0.84649750  0.47863531  0.57549405     0.06650
O1225       O  0.01104950  0.54131018  0.46075469    -0.87790
C1226       C  0.93606568  0.49130776  0.45975720     0.88240
Mg1227     Mg  0.05110001  0.52864871  0.43802156     1.58150
O1228       O  0.97579564  0.49197813  0.52680691    -0.87520
O1229       O  0.99492179  0.55532717  0.50472158    -0.74850
C1230       C  0.07834767  0.39322535  0.48003902     0.93290
O1231       O  0.98839756  0.49904917  0.40817714    -0.74660
O1232       O  0.08383284  0.40872949  0.45719851    -0.82170
Mg1233     Mg  0.97162333  0.53968525  0.43451467     1.57960
C1234       C  0.99188157  0.41167805  0.56982635     0.93210
O1235       O  0.95365284  0.58171507  0.45836674    -0.80430
H1236       H  0.99458839  0.51395908  0.56050951    -0.05780
C1237       C  0.99209016  0.42384280  0.47043130     0.88150
O1238       O  0.07038400  0.51277060  0.48149434    -0.74940
O1239       O  0.95290106  0.51158798  0.46759576    -0.87710
O1240       O  0.97023257  0.42839068  0.56233826    -0.80520
C1241       C  0.89813707  0.49116048  0.53965495     0.93330
C1242       C  0.93170760  0.58737975  0.47553528     0.93180
Mg1243     Mg  0.03625379  0.43935338  0.51834787     1.57950
O1244       O  0.05402611  0.39655199  0.49468007    -0.80440
O1245       O  0.02011060  0.48052015  0.54431070    -0.74680
O1246       O  0.90544664  0.50504997  0.51646121    -0.80520
O1247       O  0.99223827  0.56952686  0.39872730    -0.82230
O1248       O  0.10476431  0.46831202  0.41991245    -0.80550
C1249       C  0.99642039  0.49610695  0.54465192     0.87620
O1250       O  0.05638599  0.46664854  0.48442026    -0.87690
O1251       O  0.99443412  0.43751575  0.49415078    -0.87800
O1252       O  0.01213452  0.42505501  0.45027247    -0.74850
Mg1253     Mg  0.95067945  0.52963412  0.51140108     1.57970
O1254       O  0.91167341  0.46720471  0.54565256    -0.82230
H1255       H  0.03292963  0.57105039  0.48554866    -0.05950
O1256       O  0.03212222  0.48643888  0.42623037    -0.87500
H1257       H  0.01344998  0.46530804  0.39194610    -0.05780
H1258       H  0.08201397  0.48594888  0.51511840    -0.05950
C1259       C  0.01170086  0.48293234  0.40805868     0.87590
C1260       C  0.01376237  0.55656362  0.48349362     0.88180
C1261       C  0.07034447  0.48806887  0.49433496     0.88230
H1262       H  0.97249605  0.41025269  0.46675695    -0.05930
O1263       O  0.93345528  0.46784120  0.47486135    -0.74960
Mg1264     Mg  0.05750876  0.44828010  0.43961563     1.58000
H1265       H  0.92328464  0.49355106  0.43963695    -0.05950
C1266       C  0.01770510  0.56811274  0.38602796     0.93210
O1267       O  0.09343450  0.51545675  0.41631261    -0.82190
C1268       C  0.11091896  0.49423801  0.41031302     0.93270
O1269       O  0.92456609  0.57006714  0.49639560    -0.82170
Mg1270     Mg  0.95378723  0.45055771  0.51864545     1.58180
O1271       O  0.03653253  0.54821350  0.39274448    -0.80510
O1272       O  0.01664245  0.41140050  0.55571212    -0.82200
C1273       C  0.62204979  0.88668693  0.98458369     0.03690
C1274       C  0.65058488  0.88376246  0.97058865    -0.12460
C1275       C  0.67218103  0.86443437  0.98297503     0.01190
C1276       C  0.66555662  0.84988367  0.00946707    -0.10990
C1277       C  0.63635911  0.84837934  0.01991200     0.03680
C1278       C  0.61518816  0.86744732  0.00789628    -0.10410
H1279       H  0.65562442  0.89566116  0.95050080     0.09270
H1280       H  0.68206389  0.83540786  0.01918864     0.06800
H1281       H  0.59231222  0.86582967  0.01550823     0.06650
C1282       C  0.56314412  0.75701479  0.02513754     0.03690
C1283       C  0.56850372  0.74773301  0.99581304    -0.12460
C1284       C  0.54630416  0.73260161  0.98037147     0.01190
C1285       C  0.51819348  0.72832011  0.99298037    -0.10990
C1286       C  0.51321139  0.73650577  0.02208687     0.03680
C1287       C  0.53560373  0.75065976  0.03839781    -0.10410
H1288       H  0.58989094  0.75164893  0.98515609     0.09270
H1289       H  0.50098282  0.71637589  0.98090532     0.06800
H1290       H  0.53140102  0.75718578  0.06114813     0.06650
C1291       C  0.36364292  0.73610656  0.09529586     0.03690
C1292       C  0.38468608  0.71735310  0.08184813    -0.12460
C1293       C  0.41228791  0.71285789  0.09415420     0.01190
C1294       C  0.41698239  0.71876457  0.12356185    -0.10990
C1295       C  0.39712319  0.73661754  0.13923125     0.03680
C1296       C  0.37033390  0.74688581  0.12467324    -0.10410
H1297       H  0.38273373  0.71112276  0.05869795     0.09270
H1298       H  0.43895643  0.71395510  0.13258118     0.06800
H1299       H  0.35565481  0.76249770  0.13555496     0.06650
C1300       C  0.53205035  0.60016462  0.86844074     0.03690
C1301       C  0.54304115  0.62262521  0.88675936    -0.12460
C1302       C  0.52880781  0.65025589  0.88746063     0.01190
C1303       C  0.50720768  0.65540174  0.86569924    -0.10990
C1304       C  0.50772399  0.63860922  0.83976213     0.03680
C1305       C  0.51719669  0.60886384  0.84218026    -0.10410
H1306       H  0.55990224  0.61701811  0.90283219     0.09270
H1307       H  0.49319526  0.67466013  0.86629308     0.06800
H1308       H  0.51298436  0.59318585  0.82453650     0.06650
O1309       O  0.48323239  0.45098447  0.00357988    -0.87790
C1310       C  0.48738411  0.53761900  0.02293520     0.88240
Mg1311     Mg  0.52505192  0.42719563  0.00632564     1.58150
O1312       O  0.47522039  0.52261341  0.94720481    -0.87520
O1313       O  0.44605367  0.46350864  0.97468377    -0.74850
C1314       C  0.62126087  0.49219812  0.91899869     0.93290
O1315       O  0.52423694  0.48527535  0.05012490    -0.74660
O1316       O  0.61854064  0.47710173  0.94238667    -0.82170
Mg1317     Mg  0.47390446  0.47621699  0.04267180     1.57960
C1318       C  0.52685679  0.57201073  0.88443271     0.93210
O1319       O  0.42297618  0.46847566  0.03670677    -0.80430
H1320       H  0.45167767  0.50520367  0.91379182    -0.05780
C1321       C  0.56302049  0.54247200  0.96848199     0.88150
O1322       O  0.52870434  0.42834349  0.95456874    -0.74940
O1323       O  0.47378516  0.51522560  0.01448371    -0.87710
O1324       O  0.50523802  0.57211732  0.90316748    -0.80520
C1325       C  0.43965480  0.59032151  0.97593564     0.93330
C1326       C  0.40475910  0.48990415  0.03811625     0.93180
Mg1327     Mg  0.54826051  0.50900334  0.91297041     1.57950
O1328       O  0.60170802  0.51160050  0.91202748    -0.80440
O1329       O  0.49679034  0.50390197  0.90774587    -0.74680
O1330       O  0.43326739  0.56397511  0.98357244    -0.80520
O1331       O  0.47503803  0.43363005  0.07154757    -0.82230
O1332       O  0.59042014  0.42221948  0.97153342    -0.80550
C1333       C  0.47349464  0.51049850  0.92268418     0.87620
O1334       O  0.54897671  0.47083627  0.94237439    -0.87690
O1335       O  0.54207918  0.53523860  0.95210587    -0.87800
O1336       O  0.57964325  0.52336467  0.98050908    -0.74850
Mg1337     Mg  0.44057742  0.51431779  0.98010602     1.57970
O1338       O  0.46190573  0.59534184  0.95898561    -0.82230
H1339       H  0.46095982  0.42140414  0.97895004    -0.05950
O1340       O  0.54680039  0.46872502  0.01002004    -0.87500
H1341       H  0.56865304  0.48927498  0.04315679    -0.05780
H1342       H  0.53642575  0.44094937  0.91202338    -0.05950
C1343       C  0.54769528  0.48141999  0.03445637     0.87590
C1344       C  0.46348362  0.44420762  0.98558499     0.88180
C1345       C  0.53796309  0.44671705  0.93520983     0.88230
H1346       H  0.56694841  0.56552005  0.97319390    -0.05930
O1347       O  0.49941485  0.55569172  0.00489429    -0.74960
Mg1348     Mg  0.58216930  0.47296925  0.97663605     1.58000
H1349       H  0.48967445  0.54164016  0.04641917    -0.05950
C1350       C  0.49844269  0.41776271  0.07269166     0.93210
O1351       O  0.57064091  0.40255213  0.01124355    -0.82190
C1352       C  0.59183833  0.40378033  0.99250481     0.93270
O1353       O  0.40438921  0.50856942  0.01712993    -0.82170
Mg1354     Mg  0.50213923  0.56217777  0.95405230     1.58180
O1355       O  0.52136264  0.42435147  0.05721816    -0.80510
O1356       O  0.54670138  0.55173762  0.88436626    -0.82200
C1357       C  0.68037216  0.47048375  0.85927235     0.03690
C1358       C  0.66749255  0.48721890  0.88306806    -0.12460
C1359       C  0.63940767  0.47798231  0.89542266     0.01190
C1360       C  0.62415992  0.45431310  0.88244520    -0.10990
C1361       C  0.63479864  0.44164402  0.85672529     0.03680
C1362       C  0.66489867  0.44496441  0.84975018    -0.10410
H1363       H  0.67757435  0.50786714  0.88969674     0.09270
H1364       H  0.60108922  0.44982238  0.88876965     0.06800
H1365       H  0.67251609  0.43324426  0.83020193     0.06650
C1366       C  0.41577847  0.63684211  0.72211146     0.03690
C1367       C  0.43731413  0.61444440  0.72386452    -0.12460
C1368       C  0.43086287  0.58813324  0.73868982     0.01190
C1369       C  0.40151698  0.58370185  0.74838872    -0.10990
C1370       C  0.37850120  0.60149979  0.73801287     0.03680
C1371       C  0.38539728  0.62964474  0.72677064    -0.10410
H1372       H  0.45966049  0.61886393  0.71574029     0.09270
H1373       H  0.39581187  0.56396202  0.76058339     0.06800
H1374       H  0.36788083  0.64534455  0.72210163     0.06650
C1375       C  0.54903426  0.45650538  0.76442874     0.03690
C1376       C  0.55882133  0.45243244  0.73544288    -0.12460
C1377       C  0.55199793  0.47319230  0.71381770     0.01190
C1378       C  0.53331113  0.49669025  0.72093045    -0.10990
C1379       C  0.51979181  0.49803061  0.74876490     0.03680
C1380       C  0.52761302  0.47810057  0.77073449    -0.10410
H1381       H  0.57434639  0.43486148  0.73048176     0.09270
H1382       H  0.52754344  0.51271824  0.70423255     0.06800
H1383       H  0.51954919  0.48131942  0.79315701     0.06650
C1384       C  0.54014200  0.35100372  0.62762866     0.03690
C1385       C  0.56428910  0.36784125  0.63875277    -0.12460
C1386       C  0.57295044  0.39363820  0.62480178     0.01190
C1387       C  0.56647997  0.39692122  0.59524304    -0.10990
C1388       C  0.54072697  0.38334410  0.58414349     0.03680
C1389       C  0.52741005  0.35960923  0.60010686    -0.10410
H1390       H  0.57208474  0.36483189  0.66119849     0.09270
H1391       H  0.57493495  0.41672857  0.58462983     0.06800
H1392       H  0.50645669  0.35009533  0.59277122     0.06650
C1393       C  0.27510402  0.63964818  0.37684319     0.03690
C1394       C  0.26365426  0.62183387  0.39931292    -0.12460
C1395       C  0.25931903  0.59190828  0.39484266     0.01190
C1396       C  0.26373890  0.57954256  0.36718971    -0.10990
C1397       C  0.27417385  0.59596841  0.34314204     0.03680
C1398       C  0.28079815  0.62668209  0.34817162    -0.10410
H1399       H  0.26034299  0.63080185  0.42140726     0.09270
H1400       H  0.26102836  0.55582947  0.36523817     0.06800
H1401       H  0.29035364  0.63989919  0.33075033     0.06650
C1402       C  0.10440678  0.38049452  0.49528409     0.03690
C1403       C  0.11663797  0.39977247  0.51633857    -0.12460
C1404       C  0.14655806  0.39773707  0.52408446     0.01190
C1405       C  0.16276649  0.37305582  0.51468725    -0.10990
C1406       C  0.14981646  0.35016103  0.49815740     0.03680
C1407       C  0.12080848  0.35499540  0.48616195    -0.10410
H1408       H  0.10397016  0.41884725  0.52367292     0.09270
H1409       H  0.18647055  0.37202153  0.51949563     0.06800
H1410       H  0.11137406  0.33965482  0.47025850     0.06650
C1411       C  0.38563680  0.47758448  0.63514594     0.03690
C1412       C  0.41341484  0.49275989  0.63188443    -0.12460
C1413       C  0.43227878  0.48566427  0.60731306     0.01190
C1414       C  0.42209583  0.46610625  0.58551541    -0.10990
C1415       C  0.39319321  0.45550441  0.58670585     0.03680
C1416       C  0.37763951  0.45678697  0.61329973    -0.10410
H1417       H  0.41980161  0.50992222  0.64739037     0.09270
H1418       H  0.43397696  0.46435546  0.56460363     0.06800
H1419       H  0.35542280  0.44701944  0.61343849     0.06650
C1420       C  0.29206892  0.47305187  0.51686382     0.03690
C1421       C  0.28873196  0.48704544  0.48984869    -0.12460
C1422       C  0.26181472  0.50122294  0.48355110     0.01190
C1423       C  0.23653364  0.49445026  0.50093349    -0.10990
C1424       C  0.23886686  0.47649740  0.52618440     0.03680
C1425       C  0.26768152  0.46979120  0.53587147    -0.10410
H1426       H  0.30810300  0.48985430  0.47565038     0.09270
H1427       H  0.21530214  0.50321923  0.49452367     0.06800
H1428       H  0.27117938  0.46080794  0.55773139     0.06650
O1429       O  0.26852226  0.54517201  0.75459067    -0.87790
C1430       C  0.33799250  0.48976654  0.74279251     0.88240
Mg1431     Mg  0.23003794  0.53451673  0.78106035     1.58150
O1432       O  0.28602475  0.49989477  0.68464434    -0.87520
O1433       O  0.27993504  0.56342208  0.71163740    -0.74850
C1434       C  0.18839871  0.39955113  0.73935004     0.93290
O1435       O  0.29260376  0.49844411  0.80018425    -0.74660
O1436       O  0.18468352  0.41517385  0.76273195    -0.82170
Mg1437     Mg  0.31123236  0.53902684  0.77517545     1.57960
C1438       C  0.26224692  0.42341934  0.64289434     0.93210
O1439       O  0.33329215  0.58045290  0.75435835    -0.80430
H1440       H  0.26239976  0.52497259  0.65694639    -0.05780
C1441       C  0.27268573  0.42995352  0.73899226     0.88150
O1442       O  0.20244111  0.52143760  0.74033433    -0.74940
O1443       O  0.32383255  0.51251044  0.73765225    -0.87710
O1444       O  0.27610454  0.44733571  0.64705659    -0.80520
C1445       C  0.36150675  0.48441954  0.65722132     0.93330
C1446       C  0.35077498  0.58513630  0.73252802     0.93180
Mg1447     Mg  0.22411382  0.44700173  0.69781802     1.57950
O1448       O  0.21101871  0.40378583  0.72264166    -0.80440
O1449       O  0.23891513  0.48987155  0.67279707    -0.74680
O1450       O  0.35867884  0.50954299  0.66987738    -0.80520
O1451       O  0.29788835  0.56924599  0.81310295    -0.82230
O1452       O  0.17398622  0.47771389  0.80116663    -0.80550
C1453       C  0.26266727  0.50576005  0.67095089     0.87620
O1454       O  0.20889412  0.47384319  0.73421686    -0.87690
O1455       O  0.26673787  0.44656709  0.71829354    -0.87800
O1456       O  0.25621604  0.42849112  0.76181691    -0.74850
Mg1457     Mg  0.31805441  0.53389949  0.69472688     1.57970
O1458       O  0.34199507  0.46446095  0.66090653    -0.82230
H1459       H  0.24804089  0.58077755  0.73861096    -0.05950
O1460       O  0.24561270  0.49032293  0.78782776    -0.87500
H1461       H  0.26690132  0.46589460  0.81771374    -0.05780
H1462       H  0.18026621  0.49691598  0.70972050    -0.05950
C1463       C  0.26803462  0.48424873  0.80262718     0.87590
C1464       C  0.26480120  0.56392697  0.73537477     0.88180
C1465       C  0.19614887  0.49708281  0.72771651     0.88230
H1466       H  0.29245732  0.41636254  0.73771469    -0.05930
O1467       O  0.33286248  0.46596502  0.72879705    -0.74960
Mg1468     Mg  0.21519035  0.45423417  0.77744586     1.58000
H1469       H  0.35438975  0.48990485  0.76032373    -0.05950
C1470       C  0.27314096  0.57043272  0.82690521     0.93210
O1471       O  0.19018351  0.52384787  0.80768105    -0.82190
C1472       C  0.17209047  0.50305230  0.81363147     0.93270
O1473       O  0.34980083  0.56986750  0.70878467    -0.82170
Mg1474     Mg  0.30277686  0.45619620  0.68910117     1.58180
O1475       O  0.25388028  0.54981072  0.82424734    -0.80510
O1476       O  0.23970424  0.41735162  0.65892097    -0.82200
C1477       C  0.16539694  0.73977182  0.36837450     0.03690
C1478       C  0.17973908  0.72229331  0.34691826    -0.12460
C1479       C  0.16589367  0.71442375  0.32076586     0.01190
C1480       C  0.13584394  0.72034018  0.31689811    -0.10990
C1481       C  0.12105631  0.73958437  0.33615267     0.03680
C1482       C  0.13586609  0.74996901  0.36220728    -0.10410
H1483       H  0.20343756  0.71753261  0.34867980     0.09270
H1484       H  0.12548789  0.71398328  0.29608879     0.06800
H1485       H  0.12491322  0.76545774  0.37686187     0.06650
C1486       C  0.30407366  0.71509128  0.20901916     0.03690
C1487       C  0.31178996  0.74462626  0.20717240    -0.12460
C1488       C  0.29267259  0.76531466  0.21960693     0.01190
C1489       C  0.27080496  0.75631959  0.23972272    -0.10990
C1490       C  0.26127610  0.72679811  0.23953031     0.03680
C1491       C  0.27775582  0.70627451  0.22319938    -0.10410
H1492       H  0.33038460  0.75147140  0.19329299     0.09270
H1493       H  0.25777469  0.77301307  0.25110340     0.06800
H1494       H  0.27099800  0.68336999  0.22211373     0.06650
C1495       C  0.25773519  0.90295002  0.12061732     0.03690
C1496       C  0.25526259  0.88176247  0.14258104    -0.12460
C1497       C  0.26216522  0.85296635  0.13653416     0.01190
C1498       C  0.26760181  0.84384291  0.10786485    -0.10990
C1499       C  0.26730307  0.86369038  0.08449457     0.03680
C1500       C  0.26344538  0.89421347  0.09075728    -0.10410
H1501       H  0.25135946  0.88803847  0.16550126     0.09270
H1502       H  0.27255786  0.82073153  0.10386493     0.06800
H1503       H  0.26529810  0.91042872  0.07341127     0.06650
C1504       C  0.39163167  0.58081720  0.21866837     0.03690
C1505       C  0.37597916  0.59350767  0.19513565    -0.12460
C1506       C  0.38468270  0.62085227  0.18465148     0.01190
C1507       C  0.41415348  0.62921070  0.18869495    -0.10990
C1508       C  0.42790530  0.62123528  0.21533869     0.03680
C1509       C  0.41719900  0.59570990  0.23024121    -0.10410
H1510       H  0.35365544  0.58560776  0.18977045     0.09270
H1511       H  0.42147439  0.64897379  0.17732574     0.06800
H1512       H  0.42621930  0.58962702  0.25151954     0.06650
O1513       O  0.30709716  0.52043035  0.21542431    -0.87790
C1514       C  0.32872808  0.43212089  0.22113426     0.88240
Mg1515     Mg  0.30367845  0.55008416  0.25390249     1.58150
O1516       O  0.25514195  0.44665721  0.20280124    -0.87520
O1517       O  0.28254668  0.50497628  0.17599383    -0.74850
C1518       C  0.20592755  0.48084905  0.34032488     0.93290
O1519       O  0.34706321  0.48815792  0.26455493    -0.74660
O1520       O  0.22869849  0.49791105  0.34034180    -0.82170
Mg1521     Mg  0.34647673  0.49271019  0.21380879     1.57960
C1522       C  0.18370521  0.40327079  0.24123187     0.93210
O1523       O  0.35034884  0.49663348  0.16368935    -0.80430
H1524       H  0.22510782  0.46318980  0.17481652    -0.05780
C1525       C  0.26808138  0.43249193  0.29181260     0.88150
O1526       O  0.25177678  0.54417473  0.25234067    -0.74940
O1527       O  0.31980221  0.45463717  0.20873126    -0.87710
O1528       O  0.20977383  0.39972890  0.23046999    -0.80520
C1529       C  0.27875567  0.38339840  0.16522052     0.93330
C1530       C  0.34498110  0.48754296  0.13748650     0.93180
Mg1531     Mg  0.21152755  0.46303597  0.26886467     1.57950
O1532       O  0.20333546  0.46029335  0.32089714    -0.80440
O1533       O  0.21339941  0.46705639  0.21809181    -0.74680
O1534       O  0.29866042  0.40376772  0.16511725    -0.80520
O1535       O  0.37544835  0.53250007  0.21680897    -0.82230
O1536       O  0.26082694  0.55502238  0.31305700    -0.80550
C1537       C  0.23102518  0.45880888  0.19753120     0.87620
O1538       O  0.24052663  0.50165887  0.27255850    -0.87690
O1539       O  0.25285563  0.43670095  0.26935726    -0.87800
O1540       O  0.27665112  0.45364178  0.30855109    -0.74850
Mg1541     Mg  0.29040079  0.45457470  0.17093519     1.57970
O1542       O  0.26237630  0.37934869  0.18799566    -0.82230
H1543       H  0.28395385  0.54774673  0.18961982    -0.05950
O1544       O  0.30739022  0.51133719  0.28109522    -0.87500
H1545       H  0.33700938  0.49272825  0.30819420    -0.05780
H1546       H  0.20923073  0.52840897  0.25622130    -0.05950
C1547       C  0.33071833  0.49754167  0.28567659     0.87590
C1548       C  0.29116381  0.52541052  0.19360281     0.88180
C1549       C  0.23275510  0.52467266  0.26023933     0.88230
H1550       H  0.27470009  0.41026238  0.29711739    -0.05930
O1551       O  0.31059356  0.41317024  0.23157369    -0.74960
Mg1552     Mg  0.26932018  0.50423005  0.30988452     1.58000
H1553       H  0.35252541  0.42883764  0.22379289    -0.05950
C1554       C  0.37546860  0.55595240  0.23210751     0.93210
O1555       O  0.29901175  0.58131153  0.29636661    -0.82190
C1556       C  0.27812540  0.57747683  0.31538959     0.93270
O1557       O  0.32626500  0.46653158  0.13363691    -0.82170
Mg1558     Mg  0.25930712  0.40848717  0.23048008     1.58180
O1559       O  0.35566481  0.56098556  0.25211995    -0.80510
O1560       O  0.17889464  0.42302198  0.26093411    -0.82200
O1561       O  0.03794721  0.76850613  0.18799636    -0.87790
C1562       C  0.03217596  0.79404369  0.27525399     0.88240
Mg1563     Mg  0.99804759  0.76252131  0.16094842     1.58150
O1564       O  0.05467715  0.72206581  0.26097395    -0.87520
O1565       O  0.08033558  0.74893442  0.20250376    -0.74850
C1566       C  0.91191932  0.67227155  0.24385121     0.93290
O1567       O  0.98849073  0.80977353  0.21862726    -0.74660
O1568       O  0.90856993  0.69088056  0.22298011    -0.82170
Mg1569     Mg  0.04013432  0.80936219  0.21204673     1.57960
C1570       C  0.01788884  0.65521336  0.31210540     0.93210
O1571       O  0.09200363  0.81039272  0.20390878    -0.80430
H1572       H  0.08270269  0.69280090  0.24268609    -0.05780
C1573       C  0.96529697  0.73278773  0.28072760     0.88150
O1574       O  0.00060673  0.71196271  0.16831974    -0.74940
O1575       O  0.04510537  0.78528653  0.25256492    -0.87710
O1576       O  0.03522838  0.67670125  0.30660182    -0.80520
C1577       C  0.09170491  0.74885904  0.32473051     0.93330
C1578       C  0.11147600  0.81618477  0.22364637     0.93180
Mg1579     Mg  0.98780531  0.67707747  0.25142056     1.57950
O1580       O  0.93709343  0.67003570  0.25706197    -0.80440
O1581       O  0.03918753  0.67946116  0.24354668    -0.74680
O1582       O  0.09120901  0.76776237  0.30397584    -0.80520
O1583       O  0.03525173  0.83512283  0.16994540    -0.82230
O1584       O  0.93404614  0.72067651  0.16112350    -0.80550
C1585       C  0.05994249  0.69806211  0.24892204     0.87620
O1586       O  0.98038538  0.70178313  0.21134753    -0.87690
O1587       O  0.98814464  0.71871024  0.27437715    -0.87800
O1588       O  0.94625308  0.73984820  0.26114604    -0.74850
Mg1589     Mg  0.08442714  0.75844828  0.25321612     1.57970
O1590       O  0.06993005  0.73121683  0.32829974    -0.82230
H1591       H  0.06520888  0.74698827  0.16008726    -0.05950
O1592       O  0.97168779  0.76761381  0.20084524    -0.87500
H1593       H  0.94442025  0.79826944  0.21794126    -0.05780
H1594       H  0.99706075  0.67047207  0.18472367    -0.05950
C1595       C  0.96712426  0.79199966  0.21251945     0.87590
C1596       C  0.06110476  0.75451865  0.18246831     0.88180
C1597       C  0.99270953  0.69366641  0.18815866     0.88230
H1598       H  0.96169709  0.73972423  0.30338008    -0.05930
O1599       O  0.02340004  0.77622039  0.29519367    -0.74960
Mg1600     Mg  0.94174525  0.73015340  0.21110393     1.58000
H1601       H  0.02788604  0.81733439  0.27801428    -0.05950
C1602       C  0.01745075  0.83338578  0.14816922     0.93210
O1603       O  0.95453408  0.75634445  0.13411585    -0.82190
C1604       C  0.93327575  0.73819033  0.13910381     0.93270
O1605       O  0.11476560  0.79857013  0.24500769    -0.82170
Mg1606     Mg  0.02801675  0.72572471  0.30020632     1.58180
O1607       O  0.99757690  0.81297911  0.14649188    -0.80510
O1608       O  0.99529560  0.65027122  0.29560837    -0.82200
O1609       O  0.70942045  0.47913493  0.22802697    -0.87790
C1610       C  0.76458614  0.49794287  0.29811265     0.88240
Mg1611     Mg  0.72020570  0.45101262  0.19079002     1.58150
O1612       O  0.75082160  0.55311053  0.24559863    -0.87520
O1613       O  0.68896909  0.52143868  0.23943616    -0.74850
C1614       C  0.85584546  0.49811478  0.15118612     0.93290
O1615       O  0.75918570  0.43753936  0.25504305    -0.74660
O1616       O  0.83996203  0.47490901  0.14752621    -0.82170
Mg1617     Mg  0.71677135  0.46181211  0.27114966     1.57960
C1618       C  0.82658761  0.59819952  0.22011030     0.93210
O1619       O  0.67254558  0.48315176  0.28832897    -0.80430
H1620       H  0.72375379  0.57803483  0.22102431    -0.05780
C1621       C  0.82595179  0.50219434  0.23328703     0.88150
O1622       O  0.73278926  0.49126732  0.16296996    -0.74940
O1623       O  0.74184546  0.50075558  0.28287958    -0.87710
O1624       O  0.80190537  0.59379169  0.23308029    -0.80520
C1625       C  0.76316920  0.58363774  0.31948204     0.93330
C1626       C  0.66877228  0.50126000  0.30969735     0.93180
Mg1627     Mg  0.80525851  0.53987855  0.18472925     1.57950
O1628       O  0.85009828  0.51678408  0.17167802    -0.80440
O1629       O  0.76037172  0.56309268  0.19861146    -0.74680
O1630       O  0.74003551  0.56701815  0.31808147    -0.80520
O1631       O  0.68964322  0.42168542  0.25953588    -0.82230
O1632       O  0.77890799  0.43351299  0.13589910    -0.80550
C1633       C  0.74406718  0.56520518  0.22193497     0.87620
O1634       O  0.77986213  0.50125402  0.17144810    -0.87690
O1635       O  0.80791623  0.52199827  0.22760880    -0.87800
O1636       O  0.82687519  0.47837551  0.21818484    -0.74850
Mg1637     Mg  0.71706295  0.54137540  0.27760286     1.57970
O1638       O  0.78340555  0.58230180  0.29968270    -0.82230
H1639       H  0.67310849  0.49410669  0.20727317    -0.05950
O1640       O  0.76530485  0.44575613  0.20734043    -0.87500
H1641       H  0.79208827  0.41905293  0.23011695    -0.05780
H1642       H  0.75593575  0.52338103  0.14175397    -0.05950
C1643       C  0.77273987  0.43329342  0.23051759     0.87590
C1644       C  0.68982832  0.49784214  0.22412965     0.88180
C1645       C  0.75650612  0.50579569  0.15775537     0.88230
H1646       H  0.84127313  0.50515705  0.25154097    -0.05930
O1647       O  0.78770739  0.51372116  0.29367882    -0.74960
Mg1648     Mg  0.80140841  0.45898110  0.17758611     1.58000
H1649       H  0.76507303  0.48118820  0.31499427    -0.05950
C1650       C  0.68539105  0.40479983  0.23736715     0.93210
O1651       O  0.73248520  0.42378389  0.15113410    -0.82190
C1652       C  0.75382988  0.41985043  0.13275117     0.93270
O1653       O  0.68251026  0.52580831  0.31059583    -0.82170
Mg1654     Mg  0.79535952  0.55259414  0.26219611     1.58180
O1655       O  0.69999130  0.40812538  0.21323335    -0.80510
O1656       O  0.83379472  0.58114038  0.19879228    -0.82200
C1657       C  0.90446085  0.74077848  0.12308582     0.03690
C1658       C  0.90145693  0.74735783  0.09259289    -0.12460
C1659       C  0.87291950  0.75517607  0.08137208     0.01190
C1660       C  0.84842197  0.75730452  0.10065463    -0.10990
C1661       C  0.85157680  0.75101770  0.13034658     0.03680
C1662       C  0.87895520  0.74147922  0.14116389    -0.10410
H1663       H  0.92086424  0.74715176  0.07817028     0.09270
H1664       H  0.82687214  0.76485561  0.09279597     0.06800
H1665       H  0.88102682  0.73812007  0.16481716     0.06650
C1666       C  0.76568871  0.80761622  0.27419701     0.03690
C1667       C  0.77007078  0.80085338  0.24390139    -0.12460
C1668       C  0.78979848  0.77879431  0.23516350     0.01190
C1669       C  0.80244233  0.76061864  0.25625060    -0.10990
C1670       C  0.79599971  0.76526914  0.28605098     0.03680
C1671       C  0.78053859  0.79052499  0.29519125    -0.10410
H1672       H  0.75827652  0.81260941  0.22677632     0.09270
H1673       H  0.81523394  0.74148668  0.24933348     0.06800
H1674       H  0.77741857  0.79447337  0.31857886     0.06650
C1675       C  0.61663007  0.85695493  0.23729686     0.03690
C1676       C  0.63656750  0.85006586  0.26035250    -0.12460
C1677       C  0.65773076  0.87042502  0.27016766     0.01190
C1678       C  0.65581358  0.89944427  0.26095853    -0.10990
C1679       C  0.64017975  0.90601097  0.23515389     0.03680
C1680       C  0.61987341  0.88481561  0.22325066    -0.10410
H1681       H  0.63804091  0.82777924  0.26866172     0.09270
H1682       H  0.67277366  0.91476497  0.26891577     0.06800
H1683       H  0.60789390  0.88943039  0.20304503     0.06650
C1684       C  0.75751911  0.63457025  0.38890461     0.03690
C1685       C  0.77396290  0.65822502  0.37791124    -0.12460
C1686       C  0.78526809  0.65761391  0.34951981     0.01190
C1687       C  0.78288047  0.63233414  0.33238434    -0.10990
C1688       C  0.76662402  0.60766326  0.34216475     0.03680
C1689       C  0.75331195  0.60882257  0.37096331    -0.10410
H1690       H  0.77557710  0.67861253  0.39055479     0.09270
H1691       H  0.79108005  0.63344279  0.30979905     0.06800
H1692       H  0.73998708  0.59056145  0.37899257     0.06650
O1693       O  0.52755312  0.27751675  0.78832596    -0.87790
C1694       C  0.56045408  0.27457234  0.70389410     0.88240
Mg1695     Mg  0.51898913  0.23832243  0.81348976     1.58150
O1696       O  0.48543025  0.29701547  0.71094620    -0.87520
O1697       O  0.50930454  0.31985801  0.77402878    -0.74850
C1698       C  0.43626182  0.15476366  0.72266420     0.93290
O1699       O  0.57111026  0.22890546  0.75906966    -0.74660
O1700       O  0.45070034  0.15139449  0.74674301    -0.82170
Mg1701     Mg  0.57105757  0.27917413  0.76716233     1.57960
C1702       C  0.42600097  0.25414286  0.65282151     0.93210
O1703       O  0.57233249  0.32875055  0.77670191    -0.80430
H1704       H  0.45299010  0.32264853  0.72751228    -0.05780
C1705       C  0.49989418  0.20875529  0.69235713     0.88150
O1706       O  0.46813472  0.24082850  0.80368406    -0.74940
O1707       O  0.54857965  0.28566502  0.72599724    -0.87710
O1708       O  0.44593170  0.27389150  0.65707013    -0.80520
C1709       C  0.52576740  0.33027337  0.64910778     0.93330
C1710       C  0.58141191  0.34773275  0.75818372     0.93180
Mg1711     Mg  0.44235493  0.22845606  0.71719123     1.57950
O1712       O  0.43992834  0.17816482  0.70746480    -0.80440
O1713       O  0.44195945  0.27913912  0.72560759    -0.74680
O1714       O  0.53257622  0.33399132  0.67622062    -0.80520
O1715       O  0.59861241  0.27128956  0.80913767    -0.82230
O1716       O  0.47756500  0.17590469  0.81088693    -0.80550
C1717       C  0.45999710  0.30064196  0.72143493     0.87620
O1718       O  0.46262081  0.22151204  0.75953024    -0.87690
O1719       O  0.48587776  0.23153822  0.69810858    -0.87800
O1720       O  0.50378096  0.18891734  0.71173488    -0.74850
Mg1721     Mg  0.52242282  0.32494952  0.72445846     1.57970
O1722       O  0.50711620  0.31032502  0.64143749    -0.82230
H1723       H  0.50443574  0.30385157  0.81571330    -0.05950
O1724       O  0.52709061  0.21267731  0.77385700    -0.87500
H1725       H  0.55938745  0.18576597  0.75913048    -0.05780
H1726       H  0.42786530  0.23657011  0.78317860    -0.05950
C1727       C  0.55259508  0.20804939  0.76396590     0.87590
C1728       C  0.51342603  0.30034528  0.79374471     0.88180
C1729       C  0.45175461  0.23297648  0.78200059     0.88230
H1730       H  0.50898349  0.20558184  0.67037952    -0.05930
O1731       O  0.54498507  0.26634521  0.68183456    -0.74960
Mg1732     Mg  0.49028150  0.18315302  0.76123527     1.58000
H1733       H  0.58440453  0.27123185  0.70360369    -0.05950
C1734       C  0.59374883  0.25008440  0.82668184     0.93210
O1735       O  0.51279646  0.19515137  0.83928459    -0.82190
C1736       C  0.49644869  0.17332978  0.83183850     0.93270
O1737       O  0.56537971  0.35302706  0.73563594    -0.82170
Mg1738     Mg  0.49485824  0.27025898  0.67162178     1.58180
O1739       O  0.56829319  0.23718470  0.82730285    -0.80510
O1740       O  0.42078188  0.23429104  0.67182824    -0.82200
C1741       C  0.77884279  0.09630874  0.84840187     0.03690
C1742       C  0.76322616  0.10937230  0.87272178    -0.12460
C1743       C  0.77451497  0.13604373  0.88538997     0.01190
C1744       C  0.79869169  0.15026247  0.87198467    -0.10990
C1745       C  0.81142921  0.13899641  0.84637167     0.03680
C1746       C  0.80534472  0.11007682  0.83831975    -0.10410
H1747       H  0.74226075  0.10009846  0.88042291     0.09270
H1748       H  0.80441229  0.17259578  0.87877156     0.06800
H1749       H  0.81696931  0.10164537  0.81894979     0.06650
C1750       C  0.80474154  0.24414131  0.78537755     0.03690
C1751       C  0.77893202  0.25585715  0.79892689    -0.12460
C1752       C  0.76467956  0.28013963  0.78641359     0.01190
C1753       C  0.77632952  0.29277855  0.76066630    -0.10990
C1754       C  0.80147879  0.28063342  0.74701143     0.03680
C1755       C  0.81604990  0.25671763  0.75971248    -0.10410
H1756       H  0.76893113  0.24494491  0.81781365     0.09270
H1757       H  0.76470893  0.31086558  0.75022086     0.06800
H1758       H  0.83458546  0.24627685  0.74820008     0.06650
C1759       C  0.85974747  0.23633037  0.59506204     0.03690
C1760       C  0.84295801  0.24813282  0.61871908    -0.12460
C1761       C  0.85304156  0.27390917  0.63355717     0.01190
C1762       C  0.88173572  0.28352254  0.62521937    -0.10990
C1763       C  0.90211180  0.26236798  0.61547285     0.03680
C1764       C  0.89100232  0.24003630  0.59661506    -0.10410
H1765       H  0.82143299  0.23828436  0.62288578     0.09270
H1766       H  0.89023811  0.30498870  0.63068420     0.06800
H1767       H  0.90600165  0.22688824  0.58313484     0.06650
C1768       C  0.61235250  0.35991329  0.76179168     0.03690
C1769       C  0.62391167  0.38490023  0.74658080    -0.12460
C1770       C  0.65504341  0.39122366  0.74774537     0.01190
C1771       C  0.67404950  0.37172901  0.76227017    -0.10990
C1772       C  0.66288590  0.34778604  0.77806545     0.03680
C1773       C  0.63206647  0.34303507  0.77900903    -0.10410
H1774       H  0.60924807  0.39875720  0.73388489     0.09270
H1775       H  0.69804500  0.37555622  0.76164964     0.06800
H1776       H  0.62384191  0.32439395  0.79149412     0.06650
C1777       C  0.40072431  0.09839258  0.49773257     0.03690
C1778       C  0.37910218  0.08752137  0.51781425    -0.12460
C1779       C  0.35577326  0.10508539  0.52788523     0.01190
C1780       C  0.35593777  0.13478831  0.52116127    -0.10990
C1781       C  0.37351068  0.14515328  0.49782125     0.03680
C1782       C  0.39673871  0.12721906  0.48613883    -0.10410
H1783       H  0.37844794  0.06439117  0.52354421     0.09270
H1784       H  0.33753942  0.14816918  0.52941328     0.06800
H1785       H  0.41081999  0.13521138  0.46836088     0.06650
C1786       C  0.23316648  0.00751677  0.48334884     0.03690
C1787       C  0.25194382  0.02899840  0.49474662    -0.12460
C1788       C  0.25340386  0.03384390  0.52542093     0.01190
C1789       C  0.23772711  0.01449019  0.54418672    -0.10990
C1790       C  0.22274555  0.99000006  0.53204335     0.03680
C1791       C  0.21980514  0.98707792  0.50169822    -0.10410
H1792       H  0.26353540  0.04327003  0.47933883     0.09270
H1793       H  0.23830280  0.01723532  0.56793154     0.06800
H1794       H  0.20656970  0.96922856  0.49232701     0.06650
C1795       C  0.23270052  0.87663438  0.64064884     0.03690
C1796       C  0.24723022  0.85237825  0.62605182    -0.12460
C1797       C  0.23597103  0.84205602  0.59812330     0.01190
C1798       C  0.21165335  0.85713778  0.58565259    -0.10990
C1799       C  0.20307859  0.88404164  0.59724582     0.03680
C1800       C  0.20825483  0.88980909  0.62682623    -0.10410
H1801       H  0.26792250  0.84367902  0.63472937     0.09270
H1802       H  0.20436301  0.85218780  0.56331728     0.06800
H1803       H  0.19950318  0.91039119  0.63566884     0.06650
C1804       C  0.15171193  0.00255195  0.33072356     0.03690
C1805       C  0.12428263  0.98732350  0.33650656    -0.12460
C1806       C  0.11416181  0.98399918  0.36630514     0.01190
C1807       C  0.13344043  0.99214987  0.38910851    -0.10990
C1808       C  0.16036530  0.00617221  0.38292767     0.03680
C1809       C  0.16822964  0.01327421  0.35446001    -0.10410
H1810       H  0.11148247  0.97812335  0.31840759     0.09270
H1811       H  0.12724112  0.98823911  0.41198787     0.06800
H1812       H  0.18942947  0.02454906  0.35110673     0.06650
C1813       C  0.90949331  0.60860615  0.46450993     0.03690
C1814       C  0.89269568  0.62912370  0.48181530    -0.12460
C1815       C  0.86528260  0.64013465  0.47021251     0.01190
C1816       C  0.85422215  0.62728765  0.44374845    -0.10990
C1817       C  0.86828669  0.60282709  0.43184946     0.03680
C1818       C  0.89857394  0.60001680  0.43687650    -0.10410
H1819       H  0.89966115  0.63480141  0.50404792     0.09270
H1820       H  0.83162836  0.63142085  0.43624746     0.06800
H1821       H  0.91011515  0.58268570  0.42474559     0.06650
C1822       C  0.77198728  0.34338037  0.59009793     0.03690
C1823       C  0.76207720  0.35637270  0.61715058    -0.12460
C1824       C  0.77776428  0.38116645  0.62884356     0.01190
C1825       C  0.80316161  0.39163469  0.61323053    -0.10990
C1826       C  0.80927008  0.38189182  0.58463521     0.03680
C1827       C  0.79558616  0.35631208  0.57443064    -0.10410
H1828       H  0.74200197  0.34832559  0.62792738     0.09270
H1829       H  0.81487659  0.41131442  0.62058773     0.06800
H1830       H  0.80056807  0.34872270  0.55211878     0.06650
C1831       C  0.82056797  0.44248938  0.47582839     0.03690
C1832       C  0.83960124  0.46486661  0.46551644    -0.12460
C1833       C  0.83117754  0.48175025  0.44090740     0.01190
C1834       C  0.80585395  0.47362184  0.42475389    -0.10990
C1835       C  0.78646484  0.45189012  0.43534452     0.03680
C1836       C  0.79460751  0.43530085  0.45987742    -0.10410
H1837       H  0.85822959  0.47206432  0.47910361     0.09270
H1838       H  0.79837195  0.48762068  0.40689697     0.06800
H1839       H  0.77874550  0.41960792  0.46897796     0.06650
C1840       C  0.65665621  0.48987373  0.33744615     0.03690
C1841       C  0.67644756  0.47130547  0.35233123    -0.12460
C1842       C  0.67158431  0.46410459  0.38164887     0.01190
C1843       C  0.64498079  0.47226986  0.39501273    -0.10990
C1844       C  0.62401183  0.49052840  0.38072459     0.03680
C1845       C  0.63042898  0.50041452  0.35180978    -0.10410
H1846       H  0.69782773  0.46567150  0.34230394     0.09270
H1847       H  0.64229204  0.46677077  0.41820251     0.06800
H1848       H  0.61563727  0.51565669  0.34083811     0.06650
O1849       O  0.77202238  0.23383810  0.53382451    -0.87790
C1850       C  0.77044919  0.30621664  0.47787280     0.88240
Mg1851     Mg  0.79915842  0.19391058  0.52372766     1.58150
O1852       O  0.70618562  0.26339979  0.48605105    -0.87520
O1853       O  0.72961099  0.25254083  0.54941094    -0.74850
C1854       C  0.75718162  0.16165186  0.38540734     0.93290
O1855       O  0.82421165  0.25900846  0.49111105    -0.74660
O1856       O  0.77835465  0.16375778  0.40410426    -0.82170
Mg1857     Mg  0.79522923  0.27581512  0.52983030     1.57960
C1858       C  0.66041215  0.24390478  0.41069289     0.93210
O1859       O  0.77063430  0.29509598  0.57072382    -0.80430
H1860       H  0.67525456  0.24300322  0.51076829    -0.05780
C1861       C  0.75986061  0.24462139  0.41381708     0.88150
O1862       O  0.75702532  0.17027181  0.50509448    -0.74940
O1863       O  0.76196000  0.29329748  0.50047608    -0.87710
O1864       O  0.66798028  0.25728280  0.43400840    -0.80520
C1865       C  0.68702737  0.33985250  0.47046730     0.93330
C1866       C  0.75679259  0.31939173  0.57376668     0.93180
Mg1867     Mg  0.71198782  0.20041781  0.43214895     1.57950
O1868       O  0.73284885  0.17632992  0.38881890    -0.80440
O1869       O  0.68901978  0.21900358  0.47508294    -0.74680
O1870       O  0.69875012  0.33738499  0.49613663    -0.80520
O1871       O  0.82860230  0.25862559  0.56113340    -0.82230
O1872       O  0.80366537  0.14491485  0.46784025    -0.80550
C1873       C  0.68968005  0.24204183  0.49153914     0.87620
O1874       O  0.74785163  0.18545389  0.46019830    -0.87690
O1875       O  0.73752653  0.24005841  0.42938512    -0.87800
O1876       O  0.78374869  0.22999127  0.41706994    -0.74850
Mg1877     Mg  0.71790200  0.29398527  0.52085917     1.57970
O1878       O  0.69035900  0.31952514  0.45156201    -0.82230
H1879       H  0.74840570  0.21564705  0.56672734    -0.05950
O1880       O  0.80736996  0.21455462  0.48180585    -0.87500
H1881       H  0.84257185  0.23161771  0.46036536    -0.05780
H1882       H  0.72233316  0.15520375  0.48018612    -0.05950
C1883       C  0.82561643  0.23459361  0.47724331     0.87590
C1884       C  0.75005685  0.23298449  0.55051634     0.88180
C1885       C  0.74153768  0.16971620  0.48152869     0.88230
H1886       H  0.75951200  0.26247992  0.39811411    -0.05930
O1887       O  0.75728115  0.30263429  0.45320140    -0.74960
Mg1888     Mg  0.79292315  0.18866636  0.44398971     1.58000
H1889       H  0.79025289  0.31995977  0.47889457    -0.05950
C1890       C  0.84321671  0.23544193  0.56675792     0.93210
O1891       O  0.83024309  0.15478522  0.50772256    -0.82190
C1892       C  0.82690579  0.14060004  0.48338696     0.93270
O1893       O  0.73457079  0.32529483  0.55735351    -0.82170
Mg1894     Mg  0.71348950  0.27845939  0.44213446     1.58180
O1895       O  0.84045767  0.21199140  0.55118827    -0.80510
O1896       O  0.67396443  0.22037056  0.40286114    -0.82200
O1897       O  0.01278635  0.20300479  0.26041006    -0.87790
C1898       C  0.93918353  0.25484310  0.25469330     0.88240
Mg1899     Mg  0.04955657  0.21560120  0.28969449     1.58150
O1900       O  0.98331484  0.25505947  0.18963652    -0.87520
O1901       O  0.00134097  0.19316683  0.21375412    -0.74850
C1902       C  0.08351186  0.34770776  0.24357044     0.93290
O1903       O  0.98436017  0.24500972  0.31028172    -0.74660
O1904       O  0.08745795  0.33262306  0.26681041    -0.82170
Mg1905     Mg  0.96974312  0.20393446  0.28246769     1.57960
C1906       C  0.00865836  0.33462353  0.15048683     0.93210
O1907       O  0.95151248  0.16142777  0.25750069    -0.80430
H1908       H  0.00250433  0.23226118  0.15669312    -0.05780
C1909       C  0.99760367  0.32281841  0.24714380     0.88150
O1910       O  0.07684291  0.23034890  0.24881558    -0.74940
O1911       O  0.95547761  0.23382080  0.24793456    -0.87710
O1912       O  0.98338795  0.32196521  0.15536983    -0.80520
C1913       C  0.90815760  0.25900721  0.17196953     0.93330
C1914       C  0.93160758  0.15897463  0.23734739     0.93180
Mg1915     Mg  0.04465902  0.30197988  0.20412951     1.57950
O1916       O  0.05960978  0.34454003  0.22870623    -0.80440
O1917       O  0.02994540  0.26229425  0.17621118    -0.74680
O1918       O  0.91293477  0.24282436  0.19435680    -0.80520
O1919       O  0.98635853  0.17237208  0.31940949    -0.82230
O1920       O  0.10118580  0.27006748  0.29621333    -0.80550
C1921       C  0.00478481  0.24951011  0.17316109     0.87620
O1922       O  0.05861244  0.27406031  0.23952563    -0.87690
O1923       O  0.00134359  0.30747632  0.22464627    -0.87800
O1924       O  0.01474376  0.32094913  0.26957681    -0.74850
Mg1925     Mg  0.95742849  0.21757823  0.20345718     1.57970
O1926       O  0.92190238  0.28357399  0.16949931    -0.82230
H1927       H  0.03879919  0.17836819  0.23391441    -0.05950
O1928       O  0.02920494  0.25794636  0.29496771    -0.87500
H1929       H  0.00775049  0.27976023  0.32726895    -0.05780
H1930       H  0.09154910  0.25632726  0.21521208    -0.05950
C1931       C  0.00734022  0.26178082  0.31145748     0.87590
C1932       C  0.01844294  0.19099781  0.23619382     0.88180
C1933       C  0.07634407  0.25392390  0.23369992     0.88230
H1934       H  0.97909114  0.33808338  0.24787538    -0.05930
O1935       O  0.93900244  0.27856694  0.23971325    -0.74960
Mg1936     Mg  0.05720382  0.29443593  0.28217674     1.58000
H1937       H  0.92474193  0.25305618  0.27384235    -0.05950
C1938       C  0.00954908  0.17712744  0.33507449     0.93210
O1939       O  0.08846156  0.22945245  0.32001517    -0.82190
C1940       C  0.10549246  0.25182044  0.31707359     0.93270
O1941       O  0.93040440  0.17724191  0.21617510    -0.82170
Mg1942     Mg  0.96266900  0.29729433  0.19779449     1.58180
O1943       O  0.02397645  0.20112790  0.33207619    -0.80510
O1944       O  0.03139368  0.32961017  0.16638870    -0.82200
C1945       C  0.00203570  0.34882418  0.62347756     0.03690
C1946       C  0.00238217  0.37847834  0.61440818    -0.12460
C1947       C  0.98531750  0.38644311  0.58948758     0.01190
C1948       C  0.96688976  0.36506941  0.57661060    -0.10990
C1949       C  0.97455633  0.33506858  0.57856657     0.03680
C1950       C  0.99143575  0.32717852  0.60352932    -0.10410
H1951       H  0.01427308  0.39483265  0.62718191     0.09270
H1952       H  0.95087222  0.37215996  0.56021953     0.06800
H1953       H  0.99594109  0.30471122  0.60895495     0.06650
C1954       C  0.96300531  0.27009540  0.47365052     0.03690
C1955       C  0.94994711  0.24677037  0.45818884    -0.12460
C1956       C  0.96495227  0.23430791  0.43380125     0.01190
C1957       C  0.99256391  0.24581227  0.42453608    -0.10990
C1958       C  0.00510350  0.26974746  0.43989426     0.03680
C1959       C  0.99054108  0.28151011  0.46430569    -0.10410
H1960       H  0.92920434  0.23714988  0.46616368     0.09270
H1961       H  0.00480261  0.23536672  0.40660026     0.06800
H1962       H  0.00131247  0.29906235  0.47679457     0.06650
C1963       C  0.12213367  0.26258023  0.34325236     0.03690
C1964       C  0.15149414  0.25460491  0.35265421    -0.12460
C1965       C  0.16306866  0.26712013  0.37941215     0.01190
C1966       C  0.14471913  0.28667963  0.39564588    -0.10990
C1967       C  0.11489030  0.29046903  0.38849004     0.03680
C1968       C  0.10455005  0.28032386  0.36143318    -0.10410
H1969       H  0.16467964  0.23915682  0.33979800     0.09270
H1970       H  0.15191849  0.29569279  0.41666649     0.06800
H1971       H  0.08116313  0.28362263  0.35583482     0.06650
C1972       C  0.85309869  0.12694729  0.46822950     0.03690
C1973       C  0.86502334  0.09816920  0.47301798    -0.12460
C1974       C  0.88902111  0.08780585  0.45469535     0.01190
C1975       C  0.89827598  0.10568715  0.43099181    -0.10990
C1976       C  0.89152829  0.13547829  0.43116609     0.03680
C1977       C  0.86758185  0.14551826  0.44811405    -0.10410
H1978       H  0.85677046  0.08483831  0.49102778     0.09270
H1979       H  0.91638148  0.09877587  0.41652635     0.06800
H1980       H  0.86169922  0.16869029  0.44736695     0.06650
O1981       O  0.02824643  0.27660108  0.69358926    -0.87790
C1982       C  0.02178739  0.29932350  0.77920166     0.88240
Mg1983     Mg  0.98883119  0.27513992  0.66624480     1.58150
O1984       O  0.04402777  0.22669420  0.76137189    -0.87520
O1985       O  0.07171133  0.25786792  0.70551051    -0.74850
C1986       C  0.90301074  0.18445872  0.73543711     0.93290
O1987       O  0.97971542  0.31964433  0.72387210    -0.74660
O1988       O  0.89889737  0.20323218  0.71518918    -0.82170
Mg1989     Mg  0.03115954  0.31818970  0.71560178     1.57960
C1990       C  0.99724547  0.15796568  0.80674943     0.93210
O1991       O  0.08175091  0.31793206  0.70881558    -0.80430
H1992       H  0.07020218  0.19714693  0.74082172    -0.05780
C1993       C  0.95547242  0.24073141  0.78067252     0.88150
O1994       O  0.99005113  0.22440458  0.66558339    -0.74940
O1995       O  0.03436220  0.29243624  0.75570795    -0.87710
O1996       O  0.01879837  0.17671292  0.80716976    -0.80520
C1997       C  0.08151167  0.25224471  0.82570612     0.93330
C1998       C  0.10090100  0.32468110  0.72843883     0.93180
Mg1999     Mg  0.97384576  0.18785814  0.74690330     1.57950
O2000       O  0.92260736  0.18941158  0.75517297    -0.80440
O2001       O  0.02580284  0.18668357  0.73994149    -0.74680
O2002       O  0.07421120  0.27230446  0.80756508    -0.80520
O2003       O  0.02906172  0.34392798  0.67005557    -0.82230
O2004       O  0.92119422  0.23985447  0.65869877    -0.80550
C2005       C  0.04775653  0.20343442  0.74720773     0.87620
O2006       O  0.96911491  0.21453304  0.70809976    -0.87690
O2007       O  0.97811376  0.22643219  0.77392728    -0.87800
O2008       O  0.93617246  0.24813677  0.76134029    -0.74850
Mg2009     Mg  0.07322556  0.26553928  0.75656239     1.57970
O2010       O  0.06340010  0.23079614  0.82963592    -0.82230
H2011       H  0.05519144  0.25760604  0.66352674    -0.05950
O2012       O  0.96205654  0.27816600  0.70536292    -0.87500
H2013       H  0.93598779  0.30732208  0.72656603    -0.05780
H2014       H  0.98234388  0.18271301  0.68010806    -0.05950
C2015       C  0.95818568  0.30173559  0.71886782     0.87590
C2016       C  0.05159463  0.26367506  0.68642419     0.88180
C2017       C  0.98035724  0.20607571  0.68451062     0.88230
H2018       H  0.95175327  0.24686812  0.80351094    -0.05930
O2019       O  0.01497704  0.27995125  0.79851724    -0.74960
Mg2020     Mg  0.93077199  0.24293615  0.71015172     1.58000
H2021       H  0.01693434  0.32224555  0.78367908    -0.05950
C2022       C  0.00585711  0.33946521  0.65453514     0.93210
O2023       O  0.94814463  0.27500378  0.63738413    -0.82190
C2024       C  0.92614329  0.25743117  0.63716611     0.93270
O2025       O  0.10344955  0.30837324  0.75118324    -0.82170
Mg2026     Mg  0.01834002  0.22842303  0.80132850     1.58180
O2027       O  0.98512877  0.32414676  0.66537429    -0.80510
O2028       O  0.97705298  0.15876210  0.78716429    -0.82200
C2029       C  0.16086958  0.35486076  0.96719186     0.03690
C2030       C  0.15408013  0.38378998  0.97872350    -0.12460
C2031       C  0.12983778  0.40023738  0.96593276     0.01190
C2032       C  0.11349686  0.38741911  0.94286260    -0.10990
C2033       C  0.11540399  0.35741970  0.93805476     0.03680
C2034       C  0.14117196  0.34292459  0.94595607    -0.10410
H2035       H  0.16647224  0.39273755  0.99726177     0.09270
H2036       H  0.09347638  0.39832766  0.93490190     0.06800
H2037       H  0.14250960  0.32000704  0.93928713     0.06650
C2038       C  0.97783548  0.24684172  0.96862572     0.03690
C2039       C  0.99894237  0.26524339  0.95471852    -0.12460
C2040       C  0.01908216  0.28192997  0.97139515     0.01190
C2041       C  0.01891023  0.27919668  0.00238143    -0.10990
C2042       C  0.99624776  0.26324547  0.01605143     0.03680
C2043       C  0.97465238  0.24867417  0.99916261    -0.10410
H2044       H  0.00030242  0.26600501  0.93090063     0.09270
H2045       H  0.03534669  0.29059515  0.01587978     0.06800
H2046       H  0.95657180  0.23702611  0.01011585     0.06650
C2047       C  0.99135930  0.14128935  0.83400537     0.03690
C2048       C  0.00372300  0.11366487  0.84150491    -0.12460
C2049       C  0.00714441  0.10758614  0.87191511     0.01190
C2050       C  0.00583835  0.13129572  0.89163903    -0.10990
C2051       C  0.98749866  0.15554378  0.88563396     0.03680
C2052       C  0.97762900  0.15789985  0.85629752    -0.10410
H2053       H  0.00991719  0.09773895  0.82465335     0.09270
H2054       H  0.01820965  0.12914917  0.91177134     0.06800
H2055       H  0.96177386  0.17447574  0.84974134     0.06650
C2056       C  0.87391976  0.24178270  0.09626595     0.03690
C2057       C  0.87428771  0.25156977  0.12624637    -0.12460
C2058       C  0.89943700  0.24437844  0.14425131     0.01190
C2059       C  0.92337746  0.22879105  0.13206966    -0.10990
C2060       C  0.92577390  0.22669909  0.10184007     0.03680
C2061       C  0.89999820  0.22874677  0.08471958    -0.10410
H2062       H  0.85619801  0.26483880  0.13493286     0.09270
H2063       H  0.94373541  0.22606921  0.14484510     0.06800
H2064       H  0.90212156  0.22549303  0.06099449     0.06650
C2065       C  0.41181287  0.25297718  0.62339361     0.03690
C2066       C  0.43038692  0.25960811  0.59937835    -0.12460
C2067       C  0.41967562  0.25792562  0.57065401     0.01190
C2068       C  0.38968082  0.25167553  0.56554533    -0.10990
C2069       C  0.37056239  0.24433165  0.58884303     0.03680
C2070       C  0.38211283  0.24351764  0.61800404    -0.10410
H2071       H  0.45393157  0.26442439  0.60284739     0.09270
H2072       H  0.38151417  0.25144594  0.54296381     0.06800
H2073       H  0.36889107  0.23523804  0.63606598     0.06650
C2074       C  0.63445231  0.40797849  0.46845383     0.03690
C2075       C  0.65848504  0.38974172  0.47833982    -0.12460
C2076       C  0.66683494  0.36464496  0.46099087     0.01190
C2077       C  0.65002831  0.35876900  0.43508054    -0.10990
C2078       C  0.62312814  0.37302901  0.43024480     0.03680
C2079       C  0.61906860  0.40051294  0.44256562    -0.10410
H2080       H  0.66870183  0.39371513  0.49967029     0.09270
H2081       H  0.65306868  0.33846446  0.42270967     0.06800
H2082       H  0.59846197  0.41191869  0.43717153     0.06650
C2083       C  0.51797287  0.13091085  0.33421018     0.03690
C2084       C  0.54498475  0.13779208  0.34876515    -0.12460
C2085       C  0.54957671  0.12766060  0.37725628     0.01190
C2086       C  0.53693024  0.10114047  0.38529426    -0.10990
C2087       C  0.51269227  0.08951686  0.36946856     0.03680
C2088       C  0.50195636  0.10511817  0.34399369    -0.10410
H2089       H  0.55770598  0.15718656  0.34250094     0.09270
H2090       H  0.54233150  0.09245115  0.40695920     0.06800
H2091       H  0.48124819  0.09852737  0.33347184     0.06650
C2092       C  0.50468287  0.25973719  0.47404082     0.03690
C2093       C  0.50888460  0.28414697  0.45542931    -0.12460
C2094       C  0.53256053  0.28419562  0.43497358     0.01190
C2095       C  0.54671100  0.25788265  0.42785557    -0.10990
C2096       C  0.54152115  0.23308710  0.44493060     0.03680
C2097       C  0.52288081  0.23491750  0.46971687    -0.10410
H2098       H  0.49651706  0.30429450  0.45910781     0.09270
H2099       H  0.56272490  0.25706677  0.40992923     0.06800
H2100       H  0.52043346  0.21573756  0.48364427     0.06650
C2101       C  0.39458028  0.50023859  0.06766466     0.03690
C2102       C  0.41531820  0.51878904  0.08171162    -0.12460
C2103       C  0.41020398  0.52866018  0.11026178     0.01190
C2104       C  0.38179003  0.52521646  0.12246770    -0.10990
C2105       C  0.36355168  0.50153415  0.11310142     0.03680
C2106       C  0.36937939  0.48950826  0.08427420    -0.10410
H2107       H  0.43719653  0.52248143  0.07185926     0.09270
H2108       H  0.37829215  0.53524337  0.14403872     0.06800
H2109       H  0.35581602  0.47161415  0.07567567     0.06650
C2110       C  0.65614353  0.38913402  0.23744556     0.03690
C2111       C  0.65000548  0.35833464  0.23469097    -0.12460
C2112       C  0.61958359  0.34836894  0.23622428     0.01190
C2113       C  0.59681022  0.36888695  0.24089302    -0.10990
C2114       C  0.60313532  0.39867734  0.24282297     0.03680
C2115       C  0.63227461  0.40860739  0.24091143    -0.10410
H2116       H  0.66802095  0.34289424  0.23134152     0.09270
H2117       H  0.57360348  0.36177030  0.24210310     0.06800
H2118       H  0.63629756  0.43223912  0.24173415     0.06650
C2119       C  0.50516767  0.64911413  0.35438034     0.03690
C2120       C  0.47841808  0.63412068  0.34725152    -0.12460
C2121       C  0.47303119  0.60641875  0.35888023     0.01190
C2122       C  0.48470050  0.59979975  0.38628058    -0.10990
C2123       C  0.50918521  0.61573707  0.39730197     0.03680
C2124       C  0.52071448  0.64004873  0.38048356    -0.10410
H2125       H  0.46641003  0.63937072  0.32717974     0.09270
H2126       H  0.47908228  0.57852906  0.39574145     0.06800
H2127       H  0.54192446  0.65007014  0.38632768     0.06650
C2128       C  0.48687109  0.52487766  0.21038129     0.03690
C2129       C  0.47256007  0.53577334  0.23542229    -0.12460
C2130       C  0.47867605  0.52373979  0.26291680     0.01190
C2131       C  0.49666166  0.49868531  0.26484416    -0.10990
C2132       C  0.51359779  0.48952959  0.24027362     0.03680
C2133       C  0.50972167  0.50425265  0.21332090    -0.10410
H2134       H  0.45672894  0.55342126  0.23341374     0.09270
H2135       H  0.49937981  0.48830610  0.28613101     0.06800
H2136       H  0.52217563  0.49773995  0.19378280     0.06650
C2137       C  0.54285818  0.86368530  0.63732106     0.03690
C2138       C  0.53042730  0.89030516  0.62615977    -0.12460
C2139       C  0.54574883  0.90543600  0.60290657     0.01190
C2140       C  0.57344028  0.89397342  0.59321713    -0.10990
C2141       C  0.57948326  0.86438187  0.59823407     0.03680
C2142       C  0.56827918  0.85179316  0.62371186    -0.10410
H2143       H  0.50843568  0.89737920  0.63332545     0.09270
H2144       H  0.58450339  0.90387051  0.57430168     0.06800
H2145       H  0.57490075  0.82938101  0.62880560     0.06650
C2146       C  0.65721632  0.75417395  0.37336587     0.03690
C2147       C  0.63682069  0.77646874  0.38132990    -0.12460
C2148       C  0.61293774  0.78349540  0.36309659     0.01190
C2149       C  0.61338955  0.77482693  0.33384863    -0.10990
C2150       C  0.63217925  0.75198575  0.32474637     0.03680
C2151       C  0.65421702  0.74100508  0.34466932    -0.10410
H2152       H  0.63587969  0.78473271  0.40386234     0.09270
H2153       H  0.59448725  0.78095505  0.32017922     0.06800
H2154       H  0.66764887  0.72213227  0.33849595     0.06650
C2155       C  0.51904547  0.75022219  0.49806540     0.03690
C2156       C  0.54181749  0.76037083  0.51642254    -0.12460
C2157       C  0.56292470  0.78022641  0.50532588     0.01190
C2158       C  0.56384430  0.78587092  0.47499757    -0.10990
C2159       C  0.54049868  0.77618672  0.45668091     0.03680
C2160       C  0.51744238  0.75928132  0.46868183    -0.10410
H2161       H  0.54101164  0.75556846  0.53987811     0.09270
H2162       H  0.58115900  0.79973268  0.46608541     0.06800
H2163       H  0.49918457  0.75167745  0.45481817     0.06650
C2164       C  0.41451153  0.61096817  0.51269720     0.03690
C2165       C  0.38601220  0.61572724  0.49991902    -0.12460
C2166       C  0.37690553  0.64508199  0.49462272     0.01190
C2167       C  0.39846243  0.66751198  0.49572364    -0.10990
C2168       C  0.42571745  0.66347402  0.51041089     0.03680
C2169       C  0.43070163  0.63555144  0.52278804    -0.10410
H2170       H  0.37143371  0.59736121  0.49460837     0.09270
H2171       H  0.39308955  0.68794516  0.48507142     0.06800
H2172       H  0.45029944  0.63188750  0.53626485     0.06650
O2173       O  0.47891230  0.71291805  0.26007371    -0.87790
C2174       C  0.56619780  0.69026827  0.24496774     0.88240
Mg2175     Mg  0.44601727  0.72071086  0.22594030     1.58150
O2176       O  0.55427691  0.76229955  0.26894431    -0.87520
O2177       O  0.49762193  0.73355397  0.30016481    -0.74850
C2178       C  0.51059055  0.81667301  0.13708473     0.93290
O2179       O  0.50635465  0.67916139  0.20382556    -0.74660
O2180       O  0.48792480  0.79957755  0.13662373    -0.82170
Mg2181     Mg  0.50573366  0.67295265  0.25463562     1.57960
C2182       C  0.59571300  0.83294720  0.22744290     0.93210
O2183       O  0.50574909  0.66435392  0.30436100    -0.80430
H2184       H  0.53995916  0.79112564  0.29948159    -0.05780
C2185       C  0.55816520  0.75362483  0.17716085     0.88150
O2186       O  0.45099580  0.77127154  0.23124379    -0.74940
O2187       O  0.54460301  0.69893211  0.25974797    -0.87710
O2188       O  0.60008972  0.80737468  0.23795548    -0.80520
C2189       C  0.62114739  0.73759983  0.29743807     0.93330
C2190       C  0.51753178  0.66815883  0.32983294     0.93180
Mg2191     Mg  0.53188653  0.80708317  0.20615010     1.57950
O2192       O  0.53221076  0.81221451  0.15493956    -0.80440
O2193       O  0.53237660  0.80400231  0.25722648    -0.74680
O2194       O  0.60091151  0.71768344  0.29991234    -0.80520
O2195       O  0.46654469  0.64023822  0.24776693    -0.82230
O2196       O  0.43112263  0.76582761  0.16715994    -0.80550
C2197       C  0.54243481  0.78594550  0.27622587     0.87620
O2198       O  0.49076591  0.78207741  0.20486651    -0.87690
O2199       O  0.55616536  0.76588554  0.20168437    -0.87800
O2200       O  0.53520033  0.74905786  0.16092185    -0.74850
Mg2201     Mg  0.54865468  0.72544712  0.29912991     1.57970
O2202       O  0.62324350  0.75285755  0.27391889    -0.82230
H2203       H  0.45323691  0.73269026  0.29056857    -0.05950
O2204       O  0.48076949  0.71906541  0.19285240    -0.87500
H2205       H  0.49874411  0.69286104  0.16185795    -0.05780
H2206       H  0.46712311  0.81295131  0.22636852    -0.05950
C2207       C  0.49505411  0.69688446  0.18518178     0.87590
C2208       C  0.47555332  0.72633139  0.28382350     0.88180
C2209       C  0.46964980  0.78986850  0.22087776     0.88230
H2210       H  0.57993300  0.74680795  0.16920655    -0.05930
O2211       O  0.58437143  0.70821773  0.23307916    -0.74960
Mg2212     Mg  0.48366627  0.75758073  0.16515188     1.58000
H2213       H  0.56910313  0.66688867  0.24127778    -0.05950
C2214       C  0.44579583  0.64516533  0.22936948     0.93210
O2215       O  0.41068748  0.72707476  0.18865905    -0.82190
C2216       C  0.41068897  0.74598826  0.16786881     0.93270
O2217       O  0.53887623  0.68674012  0.33317289    -0.82170
Mg2218     Mg  0.58945520  0.75835933  0.23607243     1.58180
O2219       O  0.43954195  0.67139195  0.22162437    -0.80510
O2220       O  0.57413479  0.83747308  0.20971020    -0.82200
O2221       O  0.23173464  0.97481123  0.27038948    -0.87790
C2222       C  0.22084842  0.99321833  0.18289898     0.88240
Mg2223     Mg  0.23952302  0.01215588  0.30042300     1.58150
O2224       O  0.28541796  0.95680267  0.20282543    -0.87520
O2225       O  0.24653974  0.93145005  0.25411003    -0.74850
C2226       C  0.35230224  0.08419206  0.23801096     0.93290
O2227       O  0.20313384  0.03233196  0.24019781    -0.74660
O2228       O  0.33245737  0.08888945  0.25777818    -0.82170
Mg2229     Mg  0.19387048  0.98179201  0.24182569     1.57960
C2230       C  0.36469848  0.98788612  0.16388230     0.93210
O2231       O  0.18149903  0.93246819  0.24369467    -0.80430
H2232       H  0.30586704  0.92225510  0.22106553    -0.05780
C2233       C  0.29408601  0.04471697  0.19042346     0.88150
O2234       O  0.29019395  0.00008299  0.30215315    -0.74940
O2235       O  0.22295271  0.97682515  0.20470905    -0.87710
O2236       O  0.34322680  0.96970356  0.16725779    -0.80520
C2237       C  0.25869050  0.93278708  0.13306513     0.93330
C2238       C  0.17936231  0.91056244  0.22601153     0.93180
Mg2239     Mg  0.34020826  0.01081633  0.22565879     1.57950
O2240       O  0.35465216  0.05899464  0.22563337    -0.80440
O2241       O  0.32794047  0.96111468  0.22681261    -0.74680
O2242       O  0.23825572  0.93946249  0.15155680    -0.80520
O2243       O  0.16260913  0.98565604  0.28167470    -0.82230
O2244       O  0.29258460  0.06125776  0.31227524    -0.80550
C2245       C  0.30622645  0.94566846  0.21689917     0.87620
O2246       O  0.31029278  0.01895416  0.26198466    -0.87690
O2247       O  0.30314749  0.01974988  0.19653291    -0.87800
O2248       O  0.28650244  0.06302985  0.21048953    -0.74850
Mg2249     Mg  0.24289065  0.93445858  0.20263481     1.57970
O2250       O  0.28331055  0.94689256  0.13310643    -0.82230
H2251       H  0.24505766  0.94291785  0.29775868    -0.05950
O2252       O  0.24650256  0.03809891  0.26215377    -0.87500
H2253       H  0.22381953  0.07209187  0.24540897    -0.05780
H2254       H  0.33433113  0.99632524  0.29138928    -0.05950
C2255       C  0.22469620  0.04859795  0.24911822     0.87590
C2256       C  0.24127336  0.94965897  0.27519670     0.88180
C2257       C  0.31266025  0.00479717  0.28522808     0.88230
H2258       H  0.29189670  0.05085539  0.16746701    -0.05930
O2259       O  0.24325607  0.99886206  0.16610403    -0.74960
Mg2260     Mg  0.28874557  0.06143764  0.26137229     1.58000
H2261       H  0.19942609  0.00299341  0.17794788    -0.05950
C2262       C  0.16730406  0.00452916  0.30182085     0.93210
O2263       O  0.24759029  0.05441991  0.33090159    -0.82190
C2264       C  0.27179116  0.06949918  0.32966151     0.93270
O2265       O  0.19771272  0.90777848  0.20451976    -0.82170
Mg2266     Mg  0.29342004  0.98455319  0.16592571     1.58180
O2267       O  0.18865645  0.02313547  0.29894809    -0.80510
O2268       O  0.37175661  0.00471954  0.18529506    -0.82200
C2269       C  0.63602750  0.01583718  0.33050114     0.03690
C2270       C  0.63086938  0.99792950  0.35546955    -0.12460
C2271       C  0.60095911  0.99304866  0.36445015     0.01190
C2272       C  0.57793991  0.99930489  0.34443320    -0.10990
C2273       C  0.58290809  0.01852706  0.32069469     0.03680
C2274       C  0.61180343  0.03077064  0.31846947    -0.10410
H2275       H  0.64940551  0.98912238  0.36794058     0.09270
H2276       H  0.55645709  0.98989762  0.34915970     0.06800
H2277       H  0.61638790  0.04804009  0.30265654     0.06650
C2278       C  0.50462003  0.04170890  0.22476835     0.03690
C2279       C  0.49937257  0.06463568  0.20517908    -0.12460
C2280       C  0.49368345  0.05905885  0.17471256     0.01190
C2281       C  0.49527812  0.02977169  0.16478572    -0.10990
C2282       C  0.49991719  0.00707070  0.18496333     0.03680
C2283       C  0.50308704  0.01282018  0.21482374    -0.10410
H2284       H  0.50142401  0.08656204  0.21408857     0.09270
H2285       H  0.49363520  0.02435297  0.14156076     0.06800
H2286       H  0.50843601  0.99490118  0.22968739     0.06650
C2287       C  0.37245920  0.10811813  0.22717192     0.03690
C2288       C  0.38959889  0.10214240  0.20157856    -0.12460
C2289       C  0.40724075  0.12386781  0.18845615     0.01190
C2290       C  0.40593495  0.15249765  0.19960582    -0.10990
C2291       C  0.39330110  0.15812308  0.22746851     0.03680
C2292       C  0.37576683  0.13602368  0.24124807    -0.10410
H2293       H  0.39066078  0.07996886  0.19265397     0.09270
H2294       H  0.42006171  0.16911021  0.18936348     0.06800
H2295       H  0.36535878  0.14029585  0.26249979     0.06650
C2296       C  0.51051984  0.84534993  0.12152399     0.03690
C2297       C  0.50151590  0.85075072  0.09176372    -0.12460
C2298       C  0.50297230  0.88011399  0.08046135     0.01190
C2299       C  0.51070103  0.90296768  0.09969941    -0.10990
C2300       C  0.51677383  0.89757598  0.12914030     0.03680
C2301       C  0.51808346  0.86922214  0.13966426    -0.10410
H2302       H  0.49325315  0.83278210  0.07829414     0.09270
H2303       H  0.51017922  0.92565701  0.09219829     0.06800
H2304       H  0.52249809  0.86607903  0.16303326     0.06650
C2305       C  0.02560250  0.10283370  0.37172305     0.03690
C2306       C  0.01147993  0.13063128  0.36777737    -0.12460
C2307       C  0.02513293  0.15206254  0.34912873     0.01190
C2308       C  0.05311515  0.14609590  0.33646178    -0.10990
C2309       C  0.06306018  0.11721385  0.33456221     0.03680
C2310       C  0.05026380  0.09621571  0.35351344    -0.10410
H2311       H  0.99006250  0.13513802  0.37812035     0.09270
H2312       H  0.06352564  0.16221910  0.32203552     0.06800
H2313       H  0.05811539  0.07375512  0.35249424     0.06650
C2314       C  0.03673108  0.99668316  0.23609107     0.03690
C2315       C  0.05991808  0.01579390  0.24435831    -0.12460
C2316       C  0.05557535  0.04643317  0.24423249     0.01190
C2317       C  0.02933388  0.05728039  0.23060393    -0.10990
C2318       C  0.00833113  0.03768540  0.21879193     0.03680
C2319       C  0.01091594  0.00760816  0.22371641    -0.10410
H2320       H  0.08084968  0.00661569  0.25199333     0.09270
H2321       H  0.02475176  0.08054845  0.22893773     0.06800
H2322       H  0.99423572  0.99242785  0.21501832     0.06650
C2323       C  0.87187825  0.99006944  0.12539818     0.03690
C2324       C  0.87742881  0.98816635  0.09470568    -0.12460
C2325       C  0.90638320  0.99562527  0.08452587     0.01190
C2326       C  0.92589719  0.01042691  0.10378008    -0.10990
C2327       C  0.92199095  0.00891061  0.13458361     0.03680
C2328       C  0.89609922  0.99445745  0.14447032    -0.10410
H2329       H  0.85995786  0.98167738  0.07943070     0.09270
H2330       H  0.94454607  0.02225495  0.09419929     0.06800
H2331       H  0.89307844  0.98880558  0.16738431     0.06650
C2332       C  0.11987897  0.84725906  0.22836615     0.03690
C2333       C  0.14859319  0.86084171  0.22404792    -0.12460
C2334       C  0.15185213  0.89175263  0.22971432     0.01190
C2335       C  0.12647160  0.90745055  0.23894379    -0.10990
C2336       C  0.09873084  0.89396027  0.24179321     0.03680
C2337       C  0.09560579  0.86419154  0.23745167    -0.10410
H2338       H  0.16750955  0.84790633  0.21658879     0.09270
H2339       H  0.12745446  0.93124137  0.24152278     0.06800
H2340       H  0.07339927  0.85449054  0.23931061     0.06650
O2341       O  0.74296424  0.03045523  0.27102231    -0.87790
C2342       C  0.68178314  0.01440987  0.20967481     0.88240
Mg2343     Mg  0.78144834  0.05505935  0.25900013     1.58150
O2344       O  0.72806994  0.95598278  0.22864874    -0.87520
O2345       O  0.73229524  0.98787081  0.29056677    -0.74850
C2346       C  0.84234432  0.99451918  0.13941270     0.93290
O2347       O  0.72363205  0.07223130  0.21765643    -0.74660
O2348       O  0.83843772  0.01940497  0.15228027    -0.82170
Mg2349     Mg  0.70179484  0.05218053  0.26003512     1.57960
C2350       C  0.75984279  0.90059589  0.15874971     0.93210
O2351       O  0.67595478  0.03492599  0.30159218    -0.80430
H2352       H  0.74408378  0.92801568  0.25862704    -0.05780
C2353       C  0.75228107  0.99474528  0.15119321     0.88150
O2354       O  0.81004878  0.01305134  0.25489223    -0.74940
O2355       O  0.69240051  0.01251598  0.23499676    -0.87710
O2356       O  0.74134936  0.90776449  0.17916380    -0.80520
C2357       C  0.65387110  0.93075215  0.21872173     0.93330
C2358       C  0.66122223  0.01212277  0.30958828     0.93180
Mg2359     Mg  0.79639595  0.95723245  0.18397081     1.57950
O2360       O  0.82454284  0.97271747  0.14298967    -0.80440
O2361       O  0.77359308  0.93817055  0.22586208    -0.74680
O2362       O  0.65504836  0.95573336  0.23148156    -0.80520
O2363       O  0.71401670  0.09377963  0.28864388    -0.82230
O2364       O  0.84078335  0.07042828  0.20557049    -0.80550
C2365       C  0.74817172  0.94023853  0.23856356     0.87620
O2366       O  0.80679279  0.99827154  0.20855079    -0.87690
O2367       O  0.75418098  0.97644326  0.17109470    -0.87800
O2368       O  0.76748571  0.01839851  0.15196169    -0.74850
Mg2369     Mg  0.69499120  0.97188052  0.25981572     1.57970
O2370       O  0.67246202  0.92466593  0.19814715    -0.82230
H2371       H  0.76230030  0.01664870  0.30828493    -0.05950
O2372       O  0.76877775  0.05366800  0.21315260    -0.87500
H2373       H  0.75220115  0.08224608  0.18398645    -0.05780
H2374       H  0.83274928  0.97804870  0.23803294    -0.05950
C2375       C  0.74856680  0.06979384  0.20399033     0.87590
C2376       C  0.74630401  0.01222393  0.29090298     0.88180
C2377       C  0.81743054  0.99588242  0.23370385     0.88230
H2378       H  0.73711865  0.99075601  0.13298938    -0.05930
O2379       O  0.68732645  0.99552838  0.18921726    -0.74960
Mg2380     Mg  0.80323166  0.03891361  0.18267647     1.58000
H2381       H  0.66750087  0.03288263  0.20465960    -0.05950
C2382       C  0.73983989  0.10526757  0.28580400     0.93210
O2383       O  0.82149237  0.08080100  0.24948327    -0.82190
C2384       C  0.84112702  0.08518777  0.22981555     0.93270
O2385       O  0.66292283  0.98780850  0.29546752    -0.82170
Mg2386     Mg  0.71435138  0.95188196  0.18391972     1.58180
O2387       O  0.75494327  0.09868929  0.26287504    -0.80510
O2388       O  0.78434874  0.91487014  0.15618361    -0.82200
O2389       O  0.23692684  0.27068090  0.53265279    -0.87790
C2390       C  0.25247511  0.29588014  0.44749018     0.88240
Mg2391     Mg  0.27529868  0.26102220  0.55976335     1.58150
O2392       O  0.22468653  0.22479188  0.45750987    -0.87520
O2393       O  0.19461260  0.25361921  0.51472045    -0.74850
C2394       C  0.36209631  0.17295219  0.48563364     0.93290
O2395       O  0.29184688  0.31247731  0.50717233    -0.74660
O2396       O  0.36358828  0.19473426  0.50317886    -0.82170
Mg2397     Mg  0.24055383  0.31329428  0.51056445     1.57960
C2398       C  0.26448332  0.15535703  0.40655995     0.93210
O2399       O  0.18929494  0.31924856  0.51368706    -0.80430
H2400       H  0.19477090  0.19586236  0.47328616    -0.05780
C2401       C  0.31340593  0.23414206  0.43989842     0.88150
O2402       O  0.27173135  0.21101297  0.55075220    -0.74940
O2403       O  0.23774741  0.28850774  0.46960790    -0.87710
O2404       O  0.24504627  0.17611034  0.40780315    -0.80520
C2405       C  0.19181553  0.25914164  0.39445855     0.93330
C2406       C  0.16943330  0.32359382  0.49392445     0.93180
Mg2407     Mg  0.28983009  0.17854324  0.46870917     1.57950
O2408       O  0.34247485  0.17197969  0.46504857    -0.80440
O2409       O  0.23784591  0.18129724  0.47375038    -0.74680
O2410       O  0.20023914  0.27586037  0.41540351    -0.80520
O2411       O  0.24641688  0.34080551  0.55442616    -0.82230
O2412       O  0.33483985  0.21931700  0.55987159    -0.80550
C2413       C  0.21797966  0.20067342  0.46837857     0.87620
O2414       O  0.29402362  0.20351135  0.50821569    -0.87690
O2415       O  0.29065167  0.21897561  0.44416049    -0.87800
O2416       O  0.33066967  0.24193925  0.46099350    -0.74850
Mg2417     Mg  0.19738290  0.26426732  0.46450948     1.57970
O2418       O  0.20686308  0.23586521  0.38918965    -0.82230
H2419       H  0.20613147  0.25100126  0.55817002    -0.05950
O2420       O  0.30227139  0.26773111  0.52062136    -0.87500
H2421       H  0.33428994  0.29693317  0.51039988    -0.05780
H2422       H  0.27648573  0.17053341  0.53185665    -0.05950
C2423       C  0.31062243  0.29244704  0.51285120     0.87590
C2424       C  0.21247971  0.25817731  0.53626937     0.88180
C2425       C  0.28079081  0.19393533  0.53022472     0.88230
H2426       H  0.31842835  0.24147342  0.41772130    -0.05930
O2427       O  0.25874770  0.27757073  0.42670300    -0.74960
Mg2428     Mg  0.33207035  0.23194592  0.51110643     1.58000
H2429       H  0.25985931  0.31850051  0.44552989    -0.05950
C2430       C  0.26584815  0.33387086  0.57377017     0.93210
O2431       O  0.31865249  0.25590729  0.58703907    -0.82190
C2432       C  0.33933935  0.23802873  0.58023229     0.93270
O2433       O  0.16808304  0.30680958  0.47127045    -0.82170
Mg2434     Mg  0.25077062  0.22701108  0.41784399     1.58180
O2435       O  0.27667611  0.30810332  0.57413025    -0.80510
O2436       O  0.28444251  0.15263482  0.42618597    -0.82200
C2437       C  0.15652810  0.24233406  0.86928926     0.03690
C2438       C  0.12476940  0.24218452  0.86431302    -0.12460
C2439       C  0.11330111  0.25247721  0.83657679     0.01190
C2440       C  0.13359077  0.26432677  0.81614841    -0.10990
C2441       C  0.16414452  0.26218283  0.81998026     0.03680
C2442       C  0.17537283  0.25039670  0.84595235    -0.10410
H2443       H  0.10965354  0.23478799  0.88146499     0.09270
H2444       H  0.12575959  0.27411222  0.79583455     0.06800
H2445       H  0.19946676  0.24901562  0.84854903     0.06650
C2446       C  0.30859356  0.28080692  0.71837397     0.03690
C2447       C  0.31601479  0.25084057  0.71714986    -0.12460
C2448       C  0.29469856  0.22942060  0.72442377     0.01190
C2449       C  0.26780670  0.23744176  0.73736115    -0.10990
C2450       C  0.26082247  0.26721211  0.74082463     0.03680
C2451       C  0.28052025  0.28879222  0.73029052    -0.10410
H2452       H  0.33752451  0.24400840  0.70835420     0.09270
H2453       H  0.25233372  0.22049126  0.74467874     0.06800
H2454       H  0.27343331  0.31156971  0.73087875     0.06650
C2455       C  0.27768752  0.39984174  0.62658432     0.03690
C2456       C  0.26346994  0.38112272  0.60584891    -0.12460
C2457       C  0.27751936  0.35474082  0.59682473     0.01190
C2458       C  0.30256601  0.34552732  0.61305662    -0.10990
C2459       C  0.31524617  0.36306881  0.63538753     0.03680
C2460       C  0.30559669  0.39205322  0.63809942    -0.10410
H2461       H  0.24160014  0.38659246  0.59787536     0.09270
H2462       H  0.31036331  0.32322378  0.61021363     0.06800
H2463       H  0.31597286  0.40598622  0.65478198     0.06650
C2464       C  0.38117988  0.08837260  0.71000197     0.03690
C2465       C  0.40712997  0.10393847  0.72070283    -0.12460
C2466       C  0.41197199  0.13395925  0.71211577     0.01190
C2467       C  0.38923448  0.14765735  0.69579313    -0.10990
C2468       C  0.36196553  0.13373212  0.69107674     0.03680
C2469       C  0.35999496  0.10355909  0.69336503    -0.10410
H2470       H  0.42231332  0.09341099  0.73590962     0.09270
H2471       H  0.38981227  0.17129326  0.69235820     0.06800
H2472       H  0.33837089  0.09344075  0.68882558     0.06650
C2473       C  0.25619855  0.33889839  0.09480893     0.03690
C2474       C  0.26854272  0.34390575  0.12367776    -0.12460
C2475       C  0.26760020  0.37300831  0.13609787     0.01190
C2476       C  0.25693868  0.39593505  0.11889084    -0.10990
C2477       C  0.24681180  0.39078115  0.09058140     0.03680
C2478       C  0.24313133  0.36253304  0.08008749    -0.10410
H2479       H  0.27913003  0.32615439  0.13555219     0.09270
H2480       H  0.25887047  0.41859458  0.12661217     0.06800
H2481       H  0.23518492  0.36017035  0.05753450     0.06650
C2482       C  0.42087615  0.61420940  0.98963047     0.03690
C2483       C  0.40921511  0.63975422  0.97505144    -0.12460
C2484       C  0.38521821  0.65590141  0.98875972     0.01190
C2485       C  0.37351278  0.64564381  0.01562481    -0.10990
C2486       C  0.38126232  0.61807413  0.02575980     0.03680
C2487       C  0.40830010  0.60622485  0.01699310    -0.10410
H2488       H  0.41676913  0.64538675  0.95303132     0.09270
H2489       H  0.35295225  0.65509264  0.02433660     0.06800
H2490       H  0.41492853  0.58593738  0.02767239     0.06650
C2491       C  0.27888985  0.54208515  0.02534368     0.03690
C2492       C  0.28414115  0.51340933  0.03430038    -0.12460
C2493       C  0.26969825  0.49054647  0.01987558     0.01190
C2494       C  0.25263588  0.49584572  0.99500944    -0.10990
C2495       C  0.24279810  0.52449751  0.98919276     0.03680
C2496       C  0.25549228  0.54790241  0.00546054    -0.10410
H2497       H  0.30010282  0.50869331  0.05164374     0.09270
H2498       H  0.24421224  0.47711252  0.98257032     0.06800
H2499       H  0.24984517  0.57051271  0.00071529     0.06650
C2500       C  0.15501698  0.50775773  0.84135993     0.03690
C2501       C  0.12425940  0.50178875  0.84715575    -0.12460
C2502       C  0.11238286  0.50952728  0.87546958     0.01190
C2503       C  0.13075827  0.52287752  0.89652125    -0.10990
C2504       C  0.16115664  0.52583001  0.89153449     0.03680
C2505       C  0.17300945  0.51877988  0.86426488    -0.10410
H2506       H  0.11023881  0.49156480  0.83049235     0.09270
H2507       H  0.12206652  0.52779026  0.91848512     0.06800
H2508       H  0.19712488  0.52040960  0.86144471     0.06650
O2509       O  0.23543964  0.27017616  0.93362004    -0.87790
C2510       C  0.22383793  0.25117405  0.02278457     0.88240
Mg2511     Mg  0.24747345  0.23479249  0.90306973     1.58150
O2512       O  0.29030100  0.28776137  0.00638470    -0.87520
O2513       O  0.25309255  0.31182954  0.95208728    -0.74850
C2514       C  0.35884507  0.16234494  0.96744351     0.93290
O2515       O  0.20831524  0.21025691  0.96179126    -0.74660
O2516       O  0.33863893  0.15890541  0.94799032    -0.82170
Mg2517     Mg  0.19806754  0.25997785  0.96229792     1.57960
C2518       C  0.36920599  0.25556818  0.04760307     0.93210
O2519       O  0.18413698  0.30801037  0.96537310    -0.80430
H2520       H  0.31263525  0.32363038  0.99304167    -0.05780
C2521       C  0.29682269  0.19952204  0.01637491     0.88150
O2522       O  0.29730009  0.25034577  0.90765148    -0.74940
O2523       O  0.22673903  0.26691638  0.00056984    -0.87710
O2524       O  0.34690536  0.27312827  0.04771670    -0.80520
C2525       C  0.26072631  0.31272045  0.07522703     0.93330
C2526       C  0.18465527  0.33350754  0.97743964     0.93180
Mg2527     Mg  0.34521492  0.23521861  0.98426874     1.57950
O2528       O  0.36081794  0.18661020  0.98184575    -0.80440
O2529       O  0.33439752  0.28502334  0.98543480    -0.74680
O2530       O  0.24172146  0.30873969  0.05442794    -0.80520
O2531       O  0.16795451  0.25414323  0.92015297    -0.82230
O2532       O  0.30360784  0.19342986  0.89482393    -0.80550
C2533       C  0.31226833  0.29989954  0.99499267     0.87620
O2534       O  0.31599526  0.22956165  0.94747087    -0.87690
O2535       O  0.30734452  0.22457102  0.01250392    -0.87800
O2536       O  0.28981049  0.18261404  0.99478936    -0.74850
Mg2537     Mg  0.24783767  0.31008060  0.00316089     1.57970
O2538       O  0.28460202  0.29754024  0.07615208    -0.82230
H2539       H  0.25113544  0.30262460  0.90806704    -0.05950
O2540       O  0.25257664  0.20821828  0.94131777    -0.87500
H2541       H  0.23071414  0.17198964  0.95452711    -0.05780
H2542       H  0.33995214  0.25694571  0.92204423    -0.05950
C2543       C  0.23072088  0.19570445  0.95248419     0.87590
C2544       C  0.24645102  0.29508407  0.93024265     0.88180
C2545       C  0.31872878  0.24604587  0.92580364     0.88230
H2546       H  0.29284017  0.19206824  0.03871740    -0.05930
O2547       O  0.24560916  0.24609314  0.04035035    -0.74960
Mg2548     Mg  0.29530788  0.18687580  0.94409997     1.58000
H2549       H  0.20221804  0.24142459  0.02742493    -0.05950
C2550       C  0.17299318  0.23750634  0.89775485     0.93210
O2551       O  0.26127711  0.19473586  0.87107830    -0.82190
C2552       C  0.28715547  0.18343807  0.87441579     0.93270
O2553       O  0.20395882  0.33913587  0.99745450    -0.82170
Mg2554     Mg  0.29611831  0.25959052  0.04347933     1.58180
O2555       O  0.19660785  0.22146684  0.89668269    -0.80510
O2556       O  0.37514626  0.24028444  0.02468670    -0.82200
O2557       O  0.31954690  0.75736516  0.99669728    -0.87790
C2558       C  0.26728116  0.68479241  0.97540483     0.88240
Mg2559     Mg  0.30834468  0.79354419  0.02614891     1.58150
O2560       O  0.27947719  0.73773501  0.92085706    -0.87520
O2561       O  0.34068766  0.74645849  0.95417593    -0.74850
C2562       C  0.17433219  0.83233449  0.97442701     0.93290
O2563       O  0.26726528  0.72775236  0.03433602    -0.74660
O2564       O  0.19011672  0.83598284  0.99763557    -0.82170
Mg2565     Mg  0.31142455  0.71383753  0.01221202     1.57960
C2566       C  0.20028094  0.76103525  0.87791226     0.93210
O2567       O  0.35807620  0.70000785  0.99288063    -0.80430
H2568       H  0.30525524  0.76270017  0.89465075    -0.05780
C2569       C  0.20276858  0.74910020  0.97277606     0.88150
O2570       O  0.29571680  0.82140446  0.98545533    -0.74940
O2571       O  0.28923047  0.70117925  0.97250289    -0.87710
O2572       O  0.22517259  0.74835588  0.88144958    -0.80520
C2573       C  0.26862335  0.66623754  0.88897397     0.93330
C2574       C  0.36593700  0.67915092  0.97540641     0.93180
Mg2575     Mg  0.22362385  0.79727637  0.93441832     1.57950
O2576       O  0.17869644  0.81035406  0.95734649    -0.80440
O2577       O  0.26830338  0.78392773  0.91032347    -0.74680
O2578       O  0.29255910  0.66724463  0.90468165    -0.80520
O2579       O  0.33334698  0.72463519  0.05465959    -0.82230
O2580       O  0.24998831  0.84681528  0.03755445    -0.80550
C2581       C  0.28527307  0.76129105  0.90813613     0.87620
O2582       O  0.24980824  0.81031039  0.97282262    -0.87690
O2583       O  0.22128328  0.75467506  0.95314855    -0.87800
O2584       O  0.20130224  0.76450424  0.99641359    -0.74850
Mg2585     Mg  0.31499332  0.70709376  0.93290360     1.57970
O2586       O  0.24762120  0.68460090  0.89268120    -0.82230
H2587       H  0.35510158  0.77945822  0.98129496    -0.05950
O2588       O  0.26280173  0.77597940  0.02968772    -0.87500
H2589       H  0.23386379  0.75169052  0.05302603    -0.05780
H2590       H  0.27374236  0.84096184  0.95161501    -0.05950
C2591       C  0.25417080  0.75207752  0.03994320     0.87590
C2592       C  0.33904112  0.76191314  0.97775104     0.88180
C2593       C  0.27283450  0.82502475  0.96926735     0.88230
H2594       H  0.18747853  0.73079165  0.96978621    -0.05930
O2595       O  0.24352282  0.68890942  0.96076570    -0.74960
Mg2596     Mg  0.22728693  0.80526420  0.01470110     1.58000
H2597       H  0.26790205  0.66741352  0.99162924    -0.05950
C2598       C  0.33919441  0.74443466  0.07375220     0.93210
O2599       O  0.29440812  0.83179074  0.05439179    -0.82190
C2600       C  0.27191155  0.84898746  0.05563045     0.93270
O2601       O  0.35253539  0.67525791  0.95064141    -0.82170
Mg2602     Mg  0.23459131  0.72042057  0.92261895     1.58180
O2603       O  0.32912560  0.77058823  0.07029579    -0.80510
O2604       O  0.19385640  0.78274308  0.89458046    -0.82200
C2605       C  0.39796099  0.99859601  0.08583365     0.03690
C2606       C  0.39734611  0.99107521  0.11645939    -0.12460
C2607       C  0.37126817  0.99773537  0.13365759     0.01190
C2608       C  0.34647094  0.01039949  0.12029301    -0.10990
C2609       C  0.34604596  0.01439526  0.09031248     0.03680
C2610       C  0.37220385  0.01165650  0.07388116    -0.10410
H2611       H  0.41592284  0.97948063  0.12626837     0.09270
H2612       H  0.32567335  0.01309882  0.13244630     0.06800
H2613       H  0.37036229  0.01528618  0.05028094     0.06650
C2614       C  0.28205651  0.99843007  0.99169643     0.03690
C2615       C  0.26018267  0.98135372  0.97802407    -0.12460
C2616       C  0.25618150  0.98299242  0.94736031     0.01190
C2617       C  0.27511000  0.00066980  0.93037250    -0.10990
C2618       C  0.29750598  0.01733887  0.94421127     0.03680
C2619       C  0.30138975  0.01569225  0.97467933    -0.10410
H2620       H  0.24525108  0.96799303  0.99138475     0.09270
H2621       H  0.27060980  0.00368201  0.90704149     0.06800
H2622       H  0.31778945  0.02981449  0.98541122     0.06650
C2623       C  0.15832516  0.85774576  0.96203871     0.03690
C2624       C  0.12738425  0.86441117  0.96564965    -0.12460
C2625       C  0.11512531  0.88870034  0.95002743     0.01190
C2626       C  0.13380537  0.90387466  0.92999245    -0.10990
C2627       C  0.16463641  0.90078688  0.93128935     0.03680
C2628       C  0.17661652  0.87682976  0.94593713    -0.10410
H2629       H  0.11359686  0.85164051  0.98061737     0.09270
H2630       H  0.12556933  0.92253242  0.91763825     0.06800
H2631       H  0.20073805  0.87401957  0.94636777     0.06650
C2632       C  0.29434546  0.11339912  0.82591804     0.03690
C2633       C  0.28397100  0.14180484  0.83464968    -0.12460
C2634       C  0.29846268  0.15659078  0.85854933     0.01190
C2635       C  0.32211075  0.14192243  0.87300294    -0.10990
C2636       C  0.32597535  0.11194574  0.86890404     0.03680
C2637       C  0.31584321  0.09922162  0.84294735    -0.10410
H2638       H  0.26499012  0.15166389  0.82373415     0.09270
H2639       H  0.33231726  0.15119324  0.89260921     0.06800
H2640       H  0.32026267  0.07597356  0.83907440     0.06650
O2641       O  0.51900649  0.52656239  0.44395397    -0.87790
C2642       C  0.59184120  0.51195355  0.49487565     0.88240
Mg2643     Mg  0.48436589  0.55367085  0.46365877     1.58150
O2644       O  0.53967832  0.45360869  0.49052989    -0.87520
O2645       O  0.52324182  0.48059174  0.42979457    -0.74850
C2646       C  0.45924296  0.50189244  0.59818398     0.93290
O2647       O  0.55120267  0.57175670  0.48858721    -0.74660
O2648       O  0.45591261  0.52714281  0.58641768    -0.82170
Mg2649     Mg  0.56365851  0.54601967  0.44580437     1.57960
C2650       C  0.52553248  0.40244454  0.56265700     0.93210
O2651       O  0.58639413  0.52373865  0.40241677    -0.80430
H2652       H  0.51693896  0.42421670  0.46601257    -0.05780
C2653       C  0.54089521  0.49922621  0.56385237     0.88150
O2654       O  0.45754338  0.51290588  0.47938596    -0.74940
O2655       O  0.57442409  0.50887324  0.47369283    -0.87710
O2656       O  0.53974932  0.40789969  0.53897749    -0.80520
C2657       C  0.61759720  0.42947749  0.48647375     0.93330
C2658       C  0.59755598  0.49791027  0.39928559     0.93180
Mg2659     Mg  0.48826027  0.46186963  0.54767413     1.57950
O2660       O  0.48243963  0.48681399  0.59218972    -0.80440
O2661       O  0.49518210  0.43744130  0.50337038    -0.74680
O2662       O  0.61134014  0.45381021  0.47456910    -0.80520
O2663       O  0.54733279  0.58465508  0.41663735    -0.82230
O2664       O  0.44021967  0.56827372  0.52995555    -0.80550
C2665       C  0.51749612  0.43778047  0.48575555     0.87620
O2666       O  0.47328802  0.50098103  0.52381030    -0.87690
O2667       O  0.53261792  0.47886317  0.54746480    -0.87800
O2668       O  0.52663000  0.52341435  0.56549185    -0.74850
Mg2669     Mg  0.56554422  0.46638299  0.45427974     1.57970
O2670       O  0.60235695  0.42102930  0.50855986    -0.82230
H2671       H  0.49165590  0.50835826  0.41395201    -0.05950
O2672       O  0.50832509  0.55516259  0.50532801    -0.87500
H2673       H  0.53189386  0.58609743  0.52680029    -0.05780
H2674       H  0.43954826  0.47981069  0.50380830    -0.05950
C2675       C  0.53042151  0.57142531  0.50791704     0.87590
C2676       C  0.51073896  0.50561966  0.42830700     0.88180
C2677       C  0.45597133  0.49734418  0.50272264     0.88230
H2678       H  0.56093721  0.49652528  0.57687815    -0.05930
O2679       O  0.59240169  0.49376603  0.51640191    -0.74960
Mg2680     Mg  0.48335361  0.54274109  0.54536577     1.58000
H2681       H  0.60710676  0.53049740  0.49506257    -0.05950
C2682       C  0.52411821  0.60018812  0.42196996     0.93210
O2683       O  0.44707939  0.58246064  0.48323007    -0.82190
C2684       C  0.43317202  0.58427508  0.50786250     0.93270
O2685       O  0.59040021  0.47733268  0.41631204    -0.82170
Mg2686     Mg  0.56588818  0.45093568  0.52890329     1.58180
O2687       O  0.50869195  0.59608038  0.44548207    -0.80510
O2688       O  0.50497328  0.41989492  0.57167613    -0.82200
C2689       C  0.30868766  0.04363402  0.92923919    -0.04780
C2690       C  0.29006342  0.06847379  0.92915211    -0.01900
C2691       C  0.29806663  0.09306439  0.91256536     0.03090
C2692       C  0.32458713  0.09256236  0.89504916    -0.04780
C2693       C  0.34445669  0.06854415  0.89728696    -0.01890
C2694       C  0.33640294  0.04392508  0.91442548     0.03090
C2695       C  0.26093182  0.06762163  0.94372352     0.37740
C2696       C  0.37233407  0.06869466  0.88080901     0.37730
C2697       C  0.35535474  0.01813936  0.91519486     0.36150
C2698       C  0.27671537  0.11708973  0.91150479     0.36150
N2699       N  0.37017975  0.99731355  0.91577318    -0.38670
N2700       N  0.25865072  0.13529248  0.91154814    -0.38670
N2701       N  0.39464352  0.06885189  0.86772242    -0.38110
N2702       N  0.23740458  0.06704019  0.95448074    -0.38120
C2703       C  0.22998146  0.96827103  0.93423945    -0.04780
C2704       C  0.20161387  0.97377130  0.94669716    -0.01900
C2705       C  0.17918257  0.95234061  0.94438398     0.03090
C2706       C  0.18402032  0.92686056  0.92661245    -0.04780
C2707       C  0.21052222  0.92450772  0.90964054    -0.01890
C2708       C  0.23382981  0.94497444  0.91390145     0.03090
C2709       C  0.19650925  0.00011479  0.96448233     0.37740
C2710       C  0.21511458  0.89976687  0.88982279     0.37730
C2711       C  0.26250763  0.94056525  0.89939648     0.36150
C2712       C  0.15342270  0.95481955  0.96397246     0.36150
N2713       N  0.28536672  0.93706608  0.88779667    -0.38670
N2714       N  0.13338905  0.95696472  0.98013382    -0.38670
N2715       N  0.21997380  0.88033758  0.87388453    -0.38110
N2716       N  0.19226430  0.02085597  0.97890128    -0.38120
C2717       C  0.28491308  0.99933870  0.02397349    -0.04780
C2718       C  0.29687730  0.97473578  0.03845584    -0.01900
C2719       C  0.31319484  0.97923752  0.06444126     0.03090
C2720       C  0.31806694  0.00834459  0.07473130    -0.04780
C2721       C  0.30078745  0.03156759  0.06406559    -0.01890
C2722       C  0.28345368  0.02686559  0.03871095     0.03090
C2723       C  0.29577622  0.94569368  0.02485531     0.37740
C2724       C  0.30269948  0.06044248  0.07777138     0.37730
C2725       C  0.26616647  0.05081941  0.02658619     0.36150
C2726       C  0.32826707  0.95463200  0.07830555     0.36150
N2727       N  0.25226791  0.07027779  0.01769602    -0.38670
N2728       N  0.34034862  0.93509594  0.08937787    -0.38670
N2729       N  0.30394857  0.08346964  0.08882637    -0.38110
N2730       N  0.29495545  0.92250085  0.01407706    -0.38120
C2731       C  0.21955010  0.52862537  0.96610603    -0.04780
C2732       C  0.19635720  0.50721917  0.96358023    -0.01900
C2733       C  0.18054031  0.50469202  0.93731060     0.03090
C2734       C  0.18123146  0.52782315  0.91697504    -0.04780
C2735       C  0.20193872  0.55096152  0.92017350    -0.01890
C2736       C  0.22227864  0.55064190  0.94391331     0.03090
C2737       C  0.18855616  0.48715414  0.98733822     0.37740
C2738       C  0.20351914  0.57375864  0.89787887     0.37730
C2739       C  0.24630772  0.57219448  0.94411835     0.36150
C2740       C  0.16738007  0.47650117  0.92897018     0.36150
N2741       N  0.26509178  0.58983266  0.94365566    -0.38670
N2742       N  0.15823157  0.45396528  0.92090253    -0.38670
N2743       N  0.20464025  0.59158158  0.87973319    -0.38110
N2744       N  0.18184254  0.47060836  0.00558554    -0.38120
C2745       C  0.30448339  0.56211239  0.02669289    -0.04780
C2746       C  0.31667195  0.57173575  0.05384997    -0.01900
C2747       C  0.34368907  0.58780450  0.05390963     0.03090
C2748       C  0.35619403  0.59699820  0.02688198    -0.04780
C2749       C  0.34446406  0.58598115  0.99980606    -0.01890
C2750       C  0.32032176  0.56670211  0.00015793     0.03090
C2751       C  0.30223930  0.56396050  0.08150128     0.37740
C2752       C  0.35701303  0.59341660  0.97110565     0.37730
C2753       C  0.31374360  0.54943242  0.97361734     0.36150
C2754       C  0.36003746  0.59197397  0.08116559     0.36150
N2755       N  0.30916867  0.53543473  0.95260566    -0.38670
N2756       N  0.37344692  0.59368160  0.10294837    -0.38670
N2757       N  0.36568542  0.59830099  0.94747445    -0.38110
N2758       N  0.29074316  0.55760565  0.10354323    -0.38120
C2759       C  0.26337367  0.46405226  0.03631155    -0.04780
C2760       C  0.28169974  0.43928560  0.03327849    -0.01900
C2761       C  0.27533049  0.41440283  0.05019817     0.03090
C2762       C  0.25009715  0.41449322  0.06938293    -0.04780
C2763       C  0.23129160  0.43905233  0.07157644    -0.01890
C2764       C  0.23830377  0.46419787  0.05546419     0.03090
C2765       C  0.30759607  0.43994013  0.01378276     0.37740
C2766       C  0.20540116  0.43866676  0.09108205     0.37730
C2767       C  0.22041487  0.49064705  0.05936561     0.36150
C2768       C  0.29572978  0.38952389  0.04912316     0.36150
N2769       N  0.20632643  0.51181144  0.06236351    -0.38670
N2770       N  0.31199948  0.36974102  0.04829964    -0.38670
N2771       N  0.18477982  0.43836476  0.10664212    -0.38110
N2772       N  0.32830666  0.44042273  0.99833609    -0.38120
C2773       C  0.30107440  0.19847687  0.71798403    -0.04780
C2774       C  0.31508412  0.18158153  0.73965544    -0.01900
C2775       C  0.33188675  0.15709544  0.73092663     0.03090
C2776       C  0.33558979  0.15077157  0.70031415    -0.04780
C2777       C  0.31740497  0.16464761  0.67938161    -0.01890
C2778       C  0.29902161  0.18801874  0.68862258     0.03090
C2779       C  0.31417530  0.19087038  0.77044574     0.37740
C2780       C  0.31907391  0.15614126  0.64847678     0.37730
C2781       C  0.27857826  0.20174653  0.66814080     0.36150
C2782       C  0.34761353  0.14043311  0.75330224     0.36150
N2783       N  0.26191245  0.21242478  0.65190343    -0.38670
N2784       N  0.35995124  0.12758822  0.77158921    -0.38670
N2785       N  0.32045214  0.14933162  0.62379756    -0.38110
N2786       N  0.31342574  0.19839972  0.79493942    -0.38120
C2787       C  0.32735508  0.30316440  0.70260926    -0.04780
C2788       C  0.33758161  0.29784296  0.67326425    -0.01900
C2789       C  0.34607023  0.32200214  0.65578569     0.03090
C2790       C  0.33026915  0.34839331  0.66093003    -0.04780
C2791       C  0.31974073  0.35337473  0.69036693    -0.01890
C2792       C  0.32656702  0.33269959  0.71209826     0.03090
C2793       C  0.32803024  0.27153740  0.65796548     0.37740
C2794       C  0.29237464  0.36938631  0.69572046     0.37730
C2795       C  0.32404360  0.34056557  0.74308120     0.36150
C2796       C  0.36354138  0.31794297  0.62902180     0.36150
N2797       N  0.32249228  0.34760227  0.76766776    -0.38670
N2798       N  0.37744417  0.31535702  0.60752707    -0.38670
N2799       N  0.26903720  0.37964854  0.69947587    -0.38110
N2800       N  0.31792623  0.25079533  0.64686612    -0.38120
C2801       C  0.18491526  0.27120946  0.79616377    -0.04780
C2802       C  0.18227048  0.25887217  0.76743280    -0.01900
C2803       C  0.20580495  0.26226896  0.74714064     0.03090
C2804       C  0.23303367  0.27497583  0.75657319    -0.04780
C2805       C  0.23462520  0.28954179  0.78420318    -0.01890
C2806       C  0.20975499  0.28922008  0.80316143     0.03090
C2807       C  0.15694463  0.24031759  0.75944494     0.37740
C2808       C  0.26275267  0.30130473  0.79507559     0.37730
C2809       C  0.21048934  0.30584733  0.83073438     0.36150
C2810       C  0.20305389  0.25038900  0.71735781     0.36150
N2811       N  0.21105159  0.31905812  0.85271207    -0.38670
N2812       N  0.20084482  0.24085271  0.69366130    -0.38670
N2813       N  0.28507409  0.31013750  0.80458963    -0.38110
N2814       N  0.13678883  0.22550184  0.75307838    -0.38120
C2815       C  0.98683452  0.04617886  0.19600552    -0.04780
C2816       C  0.99540724  0.03934245  0.16691508    -0.01900
C2817       C  0.97517326  0.02470150  0.14814531     0.03090
C2818       C  0.94420378  0.02290510  0.15579593    -0.04780
C2819       C  0.93514109  0.03513254  0.18380206    -0.01890
C2820       C  0.95659587  0.04622750  0.20377265     0.03090
C2821       C  0.02652853  0.04317034  0.15822537     0.37740
C2822       C  0.90486351  0.03301792  0.19481707     0.37730
C2823       C  0.94825299  0.05478183  0.23373909     0.36150
C2824       C  0.98775277  0.00776399  0.12378299     0.36150
N2825       N  0.94168248  0.06146037  0.25763643    -0.38670
N2826       N  0.99813935  0.99421564  0.10457648    -0.38670
N2827       N  0.88154131  0.02935491  0.20531591    -0.38110
N2828       N  0.05133513  0.04632276  0.15144635    -0.38120
C2829       C  0.04147654  0.96493222  0.23671780    -0.04780
C2830       C  0.04982330  0.95033512  0.21041520    -0.01900
C2831       C  0.06463199  0.92342348  0.21220145     0.03090
C2832       C  0.07238746  0.91255535  0.24024348    -0.04780
C2833       C  0.05975989  0.92451485  0.26612132    -0.01890
C2834       C  0.04297210  0.95040807  0.26407857     0.03090
C2835       C  0.04583044  0.96405336  0.18183573     0.37740
C2836       C  0.06588366  0.91151467  0.29464790     0.37730
C2837       C  0.02764179  0.96229977  0.28976948     0.36150
C2838       C  0.07505999  0.90870488  0.18544022     0.36150
N2839       N  0.01484785  0.97134208  0.31018174    -0.38670
N2840       N  0.08344882  0.89692519  0.16421201    -0.38670
N2841       N  0.07080635  0.90120323  0.31745093    -0.38110
N2842       N  0.04292152  0.97455598  0.15879680    -0.38120
C2843       C  0.07953243  0.10717067  0.30742460    -0.04780
C2844       C  0.06907832  0.11521605  0.27878248    -0.01900
C2845       C  0.07631068  0.09687593  0.25479604     0.03090
C2846       C  0.07628380  0.06655726  0.26111393    -0.04780
C2847       C  0.08754537  0.05860315  0.28945421    -0.01890
C2848       C  0.09643825  0.08115682  0.30902149     0.03090
C2849       C  0.04106976  0.13061122  0.27566390     0.37740
C2850       C  0.07792175  0.03165792  0.30309818     0.37730
C2851       C  0.11364945  0.07468159  0.33527218     0.36150
C2852       C  0.07418625  0.10760790  0.22476128     0.36150
N2853       N  0.12726504  0.06994095  0.35641002    -0.38670
N2854       N  0.07243741  0.11621165  0.20079591    -0.38670
N2855       N  0.06752462  0.01100073  0.31379504    -0.38110
N2856       N  0.01722338  0.14013498  0.27367785    -0.38120
C2857       C  0.48412712  0.08340966  0.15441419    -0.04780
C2858       C  0.45744403  0.07873626  0.13838444    -0.01900
C2859       C  0.43153924  0.09463165  0.14665811     0.03090
C2860       C  0.43368355  0.11514498  0.17031390    -0.04780
C2861       C  0.46268755  0.12338455  0.18027117    -0.01890
C2862       C  0.48780702  0.11195119  0.16565846     0.03090
C2863       C  0.45675733  0.05758856  0.11440192     0.37740
C2864       C  0.46668329  0.13196747  0.21080877     0.37730
C2865       C  0.51763764  0.12265240  0.17247844     0.36150
C2866       C  0.40296714  0.08753060  0.13337143     0.36150
N2867       N  0.54139954  0.13118337  0.17813394    -0.38670
N2868       N  0.38027851  0.08120305  0.12278129    -0.38670
N2869       N  0.46962236  0.13548715  0.23592563    -0.38110
N2870       N  0.45666246  0.04091354  0.09494950    -0.38120
C2871       C  0.50505432  0.97716140  0.17468597    -0.04780
C2872       C  0.53445585  0.96796404  0.16804984    -0.01900
C2873       C  0.53899346  0.93998009  0.15577614     0.03090
C2874       C  0.51411927  0.92200238  0.14984489    -0.04780
C2875       C  0.48525538  0.92984082  0.15976940    -0.01890
C2876       C  0.48081416  0.95750581  0.17264468     0.03090
C2877       C  0.55984366  0.98724003  0.17359451     0.37740
C2878       C  0.46007075  0.90992396  0.15556999     0.37730
C2879       C  0.45156315  0.96577874  0.18383437     0.36150
C2880       C  0.56893469  0.92966307  0.14919226     0.36150
N2881       N  0.42839452  0.97222616  0.19328795    -0.38670
N2882       N  0.59292841  0.92131383  0.14456393    -0.38670
N2883       N  0.44007966  0.89396976  0.15220252    -0.38110
N2884       N  0.58032196  0.00229662  0.17803660    -0.38120
C2885       C  0.56017074  0.02561801  0.29702948    -0.04780
C2886       C  0.57113122  0.03309401  0.26843470    -0.01900
C2887       C  0.55287757  0.04736784  0.24818421     0.03090
C2888       C  0.52177404  0.04645148  0.25202169    -0.04780
C2889       C  0.50955423  0.03692086  0.27895670    -0.01890
C2890       C  0.52842055  0.02624694  0.30147553     0.03090
C2891       C  0.59923279  0.02133072  0.25728445     0.37740
C2892       C  0.47720021  0.03624673  0.28242503     0.37730
C2893       C  0.51375474  0.01134570  0.32571019     0.36150
C2894       C  0.56583348  0.05923861  0.22119686     0.36150
N2895       N  0.50061960  0.99832241  0.34350987    -0.38670
N2896       N  0.57614871  0.06884312  0.19980183    -0.38670
N2897       N  0.45144754  0.03566390  0.28527005    -0.38110
N2898       N  0.62132700  0.01186169  0.24789239    -0.38120
C2899       C  0.49709853  0.72882280  0.50857920    -0.04780
C2900       C  0.46784685  0.73801141  0.51431783    -0.01900
C2901       C  0.44426780  0.71742879  0.51366950     0.03090
C2902       C  0.45022810  0.68664417  0.51057690    -0.04780
C2903       C  0.48067523  0.67800673  0.50642090    -0.01890
C2904       C  0.50380459  0.69892831  0.50568451     0.03090
C2905       C  0.46186777  0.76917999  0.51914182     0.37740
C2906       C  0.48876399  0.64798465  0.49993220     0.37730
C2907       C  0.53456802  0.68989951  0.50006774     0.36150
C2908       C  0.41475903  0.72972876  0.51117353     0.36150
N2909       N  0.55902366  0.68279497  0.49554654    -0.38670
N2910       N  0.39269674  0.74195407  0.50641554    -0.38670
N2911       N  0.49561266  0.62389929  0.49558658    -0.38110
N2912       N  0.45676585  0.79385295  0.52323633    -0.38120
C2913       C  0.54331136  0.78044438  0.42450779    -0.04780
C2914       C  0.54864224  0.75515541  0.40709773    -0.01900
C2915       C  0.56985800  0.75671318  0.38440710     0.03090
C2916       C  0.58353742  0.78413708  0.37767183    -0.04780
C2917       C  0.57262434  0.81026483  0.39040640    -0.01890
C2918       C  0.55195150  0.80841346  0.41379721     0.03090
C2919       C  0.53635365  0.72663134  0.41532359     0.37740
C2920       C  0.58486478  0.83851787  0.38163096     0.37730
C2921       C  0.54200119  0.83495675  0.42872709     0.36150
C2922       C  0.58143583  0.72928681  0.37224409     0.36150
N2923       N  0.53416616  0.85649271  0.44011434    -0.38670
N2924       N  0.59099814  0.70713165  0.36371741    -0.38670
N2925       N  0.59446189  0.86120844  0.37480819    -0.38110
N2926       N  0.52663774  0.70386929  0.42176325    -0.38120
C2927       C  0.57859237  0.84466574  0.57202095    -0.04780
C2928       C  0.55208522  0.84386872  0.55475333    -0.01900
C2929       C  0.55093320  0.82679063  0.52927556     0.03090
C2930       C  0.57182965  0.80403654  0.52543262    -0.04780
C2931       C  0.59633189  0.80160386  0.54474899    -0.01890
C2932       C  0.60105728  0.82345161  0.56665554     0.03090
C2933       C  0.52359883  0.85493016  0.56558425     0.37740
C2934       C  0.61435501  0.77525777  0.54401513     0.37730
C2935       C  0.62741222  0.82256410  0.58518959     0.36150
C2936       C  0.52540217  0.82983374  0.50954462     0.36150
N2937       N  0.64849253  0.82183833  0.59996746    -0.38670
N2938       N  0.50486609  0.83247948  0.49428198    -0.38670
N2939       N  0.62766750  0.75347378  0.54387539    -0.38110
N2940       N  0.49990282  0.86211742  0.57310803    -0.38120
C2941       C  0.47363755  0.58233628  0.33680742    -0.04780
C2942       C  0.50142513  0.57573838  0.32297748    -0.01900
C2943       C  0.50209064  0.55805002  0.29778928     0.03090
C2944       C  0.47609647  0.54293608  0.28890302    -0.04780
C2945       C  0.44871346  0.54758587  0.30370451    -0.01890
C2946       C  0.44723985  0.56820079  0.32716631     0.03090
C2947       C  0.52974828  0.58709659  0.33401417     0.37740
C2948       C  0.42234109  0.53144450  0.29452991     0.37730
C2949       C  0.41885446  0.57502652  0.34113643     0.36150
C2950       C  0.52927226  0.55692987  0.27989027     0.36150
N2951       N  0.39614226  0.58051402  0.35222347    -0.38670
N2952       N  0.55076879  0.55637935  0.26552753    -0.38670
N2953       N  0.40144288  0.51819878  0.28725639    -0.38110
N2954       N  0.55296779  0.59522331  0.34200114    -0.38120
C2955       C  0.57888290  0.42025408  0.24365967    -0.04780
C2956       C  0.56020673  0.42291458  0.21895105    -0.01900
C2957       C  0.53693423  0.44339576  0.21935140     0.03090
C2958       C  0.53522350  0.46475591  0.24243320    -0.04780
C2959       C  0.55544292  0.46289028  0.26661938    -0.01890
C2960       C  0.57611717  0.43971260  0.26780855     0.03090
C2961       C  0.56682286  0.40660180  0.19194308     0.37740
C2962       C  0.55647920  0.48508491  0.28984986     0.37730
C2963       C  0.59531976  0.43639850  0.29346383     0.36150
C2964       C  0.51512292  0.44190225  0.19570569     0.36150
N2965       N  0.61062385  0.43372975  0.31386144    -0.38670
N2966       N  0.49844037  0.44024182  0.17626085    -0.38670
N2967       N  0.55785163  0.50213166  0.30895574    -0.38110
N2968       N  0.57289013  0.39436654  0.17021531    -0.38120
C2969       C  0.43506306  0.52685524  0.13160064    -0.04780
C2970       C  0.43698563  0.50095309  0.14866629    -0.01900
C2971       C  0.45238410  0.50155435  0.17530685     0.03090
C2972       C  0.47068387  0.52590528  0.18236161    -0.04780
C2973       C  0.47198448  0.55049236  0.16357815    -0.01890
C2974       C  0.45362284  0.55113654  0.13826590     0.03090
C2975       C  0.42273231  0.47364768  0.13922024     0.37740
C2976       C  0.49113151  0.57530548  0.17095993     0.37730
C2977       C  0.45457493  0.57609005  0.11875231     0.36150
C2978       C  0.44710251  0.47825275  0.19667853     0.36150
N2979       N  0.45628636  0.59593284  0.10299072    -0.38670
N2980       N  0.44257117  0.45998575  0.21388456    -0.38670
N2981       N  0.50639437  0.59513364  0.17687867    -0.38110
N2982       N  0.41183054  0.45161018  0.13190653    -0.38120
C2983       C  0.54494350  0.20443500  0.43066392    -0.04780
C2984       C  0.51936949  0.19279381  0.41689830    -0.01900
C2985       C  0.52030147  0.16475165  0.40477536     0.03090
C2986       C  0.54837591  0.15103926  0.39989773    -0.04780
C2987       C  0.57454901  0.16326456  0.41237270    -0.01890
C2988       C  0.57246277  0.18941152  0.42931383     0.03090
C2989       C  0.49259696  0.21060750  0.41305175     0.37740
C2990       C  0.60323646  0.14927373  0.40744241     0.37730
C2991       C  0.59830758  0.20117685  0.44465224     0.36150
C2992       C  0.49205891  0.15095285  0.39672172     0.36150
N2993       N  0.61877712  0.21046819  0.45729895    -0.38670
N2994       N  0.46892036  0.14078904  0.39119540    -0.38670
N2995       N  0.62618152  0.13815677  0.40342762    -0.38110
N2996       N  0.47149736  0.22489374  0.40962960    -0.38120
C2997       C  0.55170307  0.31034842  0.43351865    -0.04780
C2998       C  0.55684534  0.32560043  0.40691622    -0.01900
C2999       C  0.57982804  0.34700341  0.40555426     0.03090
C3000       C  0.59653572  0.35364838  0.43114223    -0.04780
C3001       C  0.58933742  0.33978709  0.45832001    -0.01890
C3002       C  0.56883568  0.31679362  0.45883457     0.03090
C3003       C  0.53942813  0.31830838  0.38093324     0.37740
C3004       C  0.60317488  0.34802428  0.48622838     0.37730
C3005       C  0.56790962  0.29780449  0.48474906     0.36150
C3006       C  0.58641926  0.36192407  0.37807783     0.36150
N3007       N  0.56785071  0.28273145  0.50530274    -0.38670
N3008       N  0.59150415  0.37386768  0.35609008    -0.38670
N3009       N  0.61293799  0.35332901  0.50935142    -0.38110
N3010       N  0.52540526  0.31244429  0.36024468    -0.38120
C3011       C  0.44073038  0.25912954  0.54566108    -0.04780
C3012       C  0.44431665  0.23399359  0.52765819    -0.01900
C3013       C  0.46340045  0.23497147  0.50306322     0.03090
C3014       C  0.48201900  0.26002861  0.49832523    -0.04780
C3015       C  0.47952344  0.28465326  0.51784709    -0.01890
C3016       C  0.45798566  0.28455607  0.54058015     0.03090
C3017       C  0.42958699  0.20643275  0.53544603     0.37740
C3018       C  0.49950190  0.30985958  0.51584530     0.37730
C3019       C  0.45359460  0.31060143  0.55893329     0.36150
C3020       C  0.46314844  0.20981272  0.48304648     0.36150
N3021       N  0.44991392  0.33128166  0.57359354    -0.38670
N3022       N  0.46223893  0.18894251  0.46822198    -0.38670
N3023       N  0.51486326  0.33043357  0.51485472    -0.38110
N3024       N  0.41826188  0.18443062  0.54198872    -0.38120
C3025       C  0.96463221  0.22190301  0.95164403    -0.04780
C3026       C  0.95846896  0.22669262  0.92180976    -0.01900
C3027       C  0.97006565  0.20705697  0.90074701     0.03090
C3028       C  0.97850156  0.17791939  0.90902198    -0.04780
C3029       C  0.97725943  0.17090239  0.93986391    -0.01890
C3030       C  0.97060919  0.19290085  0.96093071     0.03090
C3031       C  0.94519678  0.25441665  0.91288961     0.37740
C3032       C  0.98715101  0.14306453  0.95172891     0.37730
C3033       C  0.97233882  0.18565018  0.99219502     0.36150
C3034       C  0.97871534  0.21977260  0.87269767     0.36150
N3035       N  0.97383693  0.17903896  0.01682196    -0.38670
N3036       N  0.98566454  0.23073028  0.85071000    -0.38670
N3037       N  0.99724637  0.12248524  0.96282298    -0.38110
N3038       N  0.93470148  0.27654642  0.90584482    -0.38120
C3039       C  0.99305884  0.26197083  0.04815767    -0.04780
C3040       C  0.99907159  0.23469673  0.06167426    -0.01900
C3041       C  0.97797433  0.22291598  0.08154103     0.03090
C3042       C  0.95295888  0.23995284  0.08923228    -0.04780
C3043       C  0.95251170  0.27035801  0.08246494    -0.01890
C3044       C  0.97189866  0.28110919  0.06083500     0.03090
C3045       C  0.02450791  0.21742424  0.05196111     0.37740
C3046       C  0.93001159  0.28993584  0.09494570     0.37730
C3047       C  0.96526698  0.30931080  0.04754899     0.36150
C3048       C  0.98078774  0.19311499  0.09240544     0.36150
N3049       N  0.95789722  0.33155356  0.03766891    -0.38670
N3050       N  0.98299331  0.16934410  0.10121955    -0.38670
N3051       N  0.91236910  0.30611987  0.10436413    -0.38110
N3052       N  0.04494374  0.20369358  0.04435736    -0.38120
C3053       C  0.08756516  0.34035035  0.94184524    -0.04780
C3054       C  0.08033619  0.31637563  0.92324058    -0.01900
C3055       C  0.05823631  0.29600930  0.93250855     0.03090
C3056       C  0.03973201  0.30320188  0.95720468    -0.04780
C3057       C  0.04369802  0.33058251  0.97124582    -0.01890
C3058       C  0.07055905  0.34511268  0.96778352     0.03090
C3059       C  0.09710785  0.31192067  0.89614416     0.37740
C3060       C  0.02138070  0.34358728  0.99050391     0.37730
C3061       C  0.08351727  0.35774447  0.99439496     0.36150
C3062       C  0.05627631  0.26752674  0.91799772     0.36150
N3063       N  0.09359793  0.36575132  0.01660010    -0.38670
N3064       N  0.05466461  0.24469114  0.90654909    -0.38670
N3065       N  0.00417045  0.35548920  0.00543495    -0.38110
N3066       N  0.11078998  0.30943612  0.87451790    -0.38120
C3067       C  0.09212610  0.29518898  0.41180940    -0.04780
C3068       C  0.08890589  0.27313452  0.43366307    -0.01900
C3069       C  0.06030156  0.26608972  0.44430871     0.03090
C3070       C  0.03521538  0.28070279  0.43289340    -0.04780
C3071       C  0.03904227  0.30624416  0.41575348    -0.01890
C3072       C  0.06782835  0.31393924  0.40574940     0.03090
C3073       C  0.11412988  0.25533278  0.44289048     0.37740
C3074       C  0.01331184  0.32364030  0.40739265     0.37730
C3075       C  0.07218160  0.33927029  0.38682938     0.36150
C3076       C  0.05670505  0.24335753  0.46645490     0.36150
N3077       N  0.07570200  0.35951443  0.37176694    -0.38670
N3078       N  0.05451569  0.22554392  0.48451574    -0.38670
N3079       N  0.99271352  0.33750868  0.40085670    -0.38110
N3080       N  0.13407714  0.24098139  0.45030565    -0.38120
C3081       C  0.91562883  0.15670669  0.42380343    -0.04780
C3082       C  0.94193525  0.15693498  0.44133313    -0.01900
C3083       C  0.96179225  0.18077865  0.43979355     0.03090
C3084       C  0.95417374  0.20557512  0.42304607    -0.04780
C3085       C  0.93004545  0.20418019  0.40315447    -0.01890
C3086       C  0.91081609  0.17948089  0.40331436     0.03090
C3087       C  0.94679575  0.13516656  0.46424745     0.37740
C3088       C  0.92414301  0.22894746  0.38401756     0.37730
C3089       C  0.88500728  0.17843736  0.38408056     0.36150
C3090       C  0.98823719  0.18124293  0.45837146     0.36150
N3091       N  0.86436458  0.17765860  0.36873149    -0.38670
N3092       N  0.00908417  0.18085945  0.47344645    -0.38670
N3093       N  0.91964307  0.24872767  0.36866279    -0.38110
N3094       N  0.95113961  0.11866283  0.48314369    -0.38120
C3095       C  0.96634508  0.31469309  0.55283214    -0.04780
C3096       C  0.96441172  0.28315456  0.55372006    -0.01900
C3097       C  0.95671555  0.26711788  0.52776119     0.03090
C3098       C  0.95045615  0.28210315  0.50137217    -0.04780
C3099       C  0.94729365  0.31264060  0.50206495    -0.01890
C3100       C  0.96133733  0.32803015  0.52487796     0.03090
C3101       C  0.97553290  0.26601297  0.57810130     0.37740
C3102       C  0.93782990  0.32802911  0.47561615     0.37730
C3103       C  0.97930113  0.35309412  0.51604945     0.36150
C3104       C  0.95816907  0.23512446  0.52717303     0.36150
N3105       N  0.99468192  0.37223923  0.50882335    -0.38670
N3106       N  0.95934266  0.20965232  0.52673286    -0.38670
N3107       N  0.93039864  0.34023620  0.45450574    -0.38110
N3108       N  0.98551474  0.25070562  0.59589307    -0.38120
C3109       C  0.75481006  0.45268864  0.42588439    -0.04780
C3110       C  0.74110425  0.42801113  0.41244576    -0.01900
C3111       C  0.71234137  0.43073681  0.40007246     0.03090
C3112       C  0.69783781  0.45824810  0.40043732    -0.04780
C3113       C  0.71032082  0.48205178  0.41648620    -0.01890
C3114       C  0.73839289  0.47907505  0.42972229     0.03090
C3115       C  0.75688931  0.40019913  0.41057347     0.37740
C3116       C  0.69490365  0.51019671  0.41833298     0.37730
C3117       C  0.75039070  0.50358618  0.44684890     0.36150
C3118       C  0.69752148  0.40515009  0.38776475     0.36150
N3119       N  0.75937803  0.52347718  0.46032334    -0.38670
N3120       N  0.68602522  0.38404892  0.37888597    -0.38670
N3121       N  0.68256053  0.53253848  0.41984317    -0.38110
N3122       N  0.76945844  0.37797892  0.40919675    -0.38120
C3123       C  0.81821110  0.40363710  0.56185027    -0.04780
C3124       C  0.84338137  0.39878925  0.54351523    -0.01900
C3125       C  0.84578808  0.41345336  0.51611203     0.03090
C3126       C  0.82261748  0.43231269  0.50688938    -0.04780
C3127       C  0.79932535  0.43969091  0.52683942    -0.01890
C3128       C  0.79719228  0.42556007  0.55420368     0.03090
C3129       C  0.86593424  0.37774571  0.55229171     0.37740
C3130       C  0.77610255  0.46041778  0.51861072     0.37730
C3131       C  0.77138122  0.43165972  0.57294888     0.36150
C3132       C  0.87109350  0.40789678  0.49676002     0.35190
N3133       N  0.75061571  0.43675419  0.58746224    -0.38670
N3134       N  0.89138178  0.40363634  0.48135001    -0.38670
N3135       N  0.75717476  0.47659653  0.51252173    -0.38110
N3136       N  0.88397959  0.36098036  0.55931796    -0.38120
C3137       C  0.85217556  0.57402159  0.43147654    -0.04780
C3138       C  0.85713260  0.55450010  0.40761197    -0.01900
C3139       C  0.85156502  0.52403855  0.41079567     0.03090
C3140       C  0.84111487  0.51287694  0.43811708    -0.04780
C3141       C  0.83499220  0.53262570  0.46164298    -0.01890
C3142       C  0.83985295  0.56292083  0.45823583     0.03090
C3143       C  0.86964646  0.56626359  0.38054069     0.37740
C3144       C  0.82378929  0.52217911  0.48997714     0.37730
C3145       C  0.83323458  0.58176704  0.48350651     0.36150
C3146       C  0.85755170  0.50402806  0.38641461     0.36150
N3147       N  0.82733388  0.59522375  0.50455643    -0.38670
N3148       N  0.86225011  0.48784166  0.36708335    -0.38670
N3149       N  0.81539918  0.51489268  0.51303822    -0.38110
N3150       N  0.88008748  0.57740509  0.36000186    -0.38120
C3151       C  0.21937654  0.01216973  0.45491154    -0.04780
C3152       C  0.19393743  0.03054106  0.45422275    -0.01900
C3153       C  0.17563385  0.03025948  0.42940528     0.03090
C3154       C  0.18223342  0.01075018  0.40613210    -0.04780
C3155       C  0.20876675  0.99381784  0.40592391    -0.01890
C3156       C  0.22757638  0.99471722  0.43051999     0.03090
C3157       C  0.18481991  0.04725709  0.48025362     0.37740
C3158       C  0.21568450  0.97416864  0.38133171     0.37730
C3159       C  0.25407340  0.97635525  0.43160972     0.36150
C3160       C  0.14939869  0.04903238  0.42832526     0.36150
N3161       N  0.27514539  0.96162360  0.43233629    -0.38670
N3162       N  0.12854834  0.06405950  0.42758666    -0.38670
N3163       N  0.22108875  0.95864482  0.36162478    -0.38110
N3164       N  0.17734935  0.06010484  0.50118841    -0.38120
C3165       C  0.21687194  0.96368543  0.54956010    -0.04780
C3166       C  0.24163289  0.94635645  0.55727437    -0.01900
C3167       C  0.23715993  0.91995650  0.57225715     0.03090
C3168       C  0.20758934  0.90971163  0.57786457    -0.04780
C3169       C  0.18303683  0.92520781  0.56669873    -0.01890
C3170       C  0.18750337  0.95269474  0.55316963     0.03090
C3171       C  0.27171171  0.95444974  0.54763099     0.37740
C3172       C  0.15380095  0.91166322  0.56717447     0.37730
C3173       C  0.16221219  0.96911981  0.54199116     0.36150
C3174       C  0.26347992  0.90352396  0.58100927     0.36150
N3175       N  0.14212753  0.98222414  0.53285611    -0.38670
N3176       N  0.28534282  0.89145149  0.58720051    -0.38670
N3177       N  0.13073137  0.90012686  0.56673708    -0.38110
N3178       N  0.29558035  0.96041386  0.53954512    -0.38120
C3179       C  0.27314391  0.05813844  0.53626833    -0.04780
C3180       C  0.27474220  0.08392705  0.51919886    -0.01900
C3181       C  0.30270331  0.09654259  0.51430750     0.03090
C3182       C  0.32641206  0.09121191  0.53416698    -0.04780
C3183       C  0.32245851  0.07029549  0.55673917    -0.01890
C3184       C  0.29644756  0.05251957  0.55661169     0.03090
C3185       C  0.24918471  0.09439550  0.50255477     0.37740
C3186       C  0.34607624  0.06517173  0.57798260     0.37730
C3187       C  0.29460761  0.02731430  0.57560454     0.36150
C3188       C  0.30889353  0.10797739  0.48506445     0.36150
N3189       N  0.29152393  0.00679575  0.59021786    -0.38670
N3190       N  0.31476854  0.11510231  0.46125243    -0.38670
N3191       N  0.36491332  0.06101694  0.59494230    -0.38110
N3192       N  0.22933864  0.10319113  0.48885907    -0.38120
C3193       C  0.81060951  0.28956669  0.71714031    -0.04780
C3194       C  0.79270214  0.28206180  0.69276320    -0.01900
C3195       C  0.80524847  0.28166659  0.66416902     0.03090
C3196       C  0.83651374  0.28698562  0.66003252    -0.04780
C3197       C  0.85236704  0.30015150  0.68441239    -0.01890
C3198       C  0.83941990  0.30081374  0.71276766     0.03090
C3199       C  0.76203705  0.27213547  0.69736647     0.37740
C3200       C  0.88188381  0.31316226  0.68185373     0.37730
C3201       C  0.85637512  0.31147479  0.73812873     0.36150
C3202       C  0.78544386  0.27432577  0.63994666     0.36150
N3203       N  0.86982456  0.31978336  0.75838044    -0.38670
N3204       N  0.76849422  0.26689197  0.62211004    -0.38670
N3205       N  0.90510625  0.32447671  0.68038552    -0.38110
N3206       N  0.73766182  0.26415149  0.70096684    -0.38120
C3207       C  0.73545369  0.29096965  0.79708802    -0.04780
C3208       C  0.73429608  0.31875031  0.81090603    -0.01900
C3209       C  0.70849410  0.33616250  0.80820027     0.03090
C3210       C  0.68431163  0.32614513  0.79060133    -0.04780
C3211       C  0.68388776  0.29641068  0.78077201    -0.01890
C3212       C  0.70920331  0.27858496  0.78503543     0.03090
C3213       C  0.76070097  0.33029788  0.82560348     0.37740
C3214       C  0.65914250  0.28491918  0.76337630     0.37730
C3215       C  0.70900560  0.24823685  0.77486094     0.36150
C3216       C  0.70790683  0.36518674  0.82169039     0.36150
N3217       N  0.70803372  0.22393535  0.76703451    -0.38670
N3218       N  0.70808293  0.38831100  0.83257763    -0.38670
N3219       N  0.63954061  0.27566224  0.74939999    -0.38110
N3220       N  0.78185771  0.33942660  0.83723473    -0.38120
C3221       C  0.81436070  0.21434004  0.79318643    -0.04780
C3222       C  0.79621449  0.19082338  0.78400057    -0.01900
C3223       C  0.79577935  0.16504722  0.80058245     0.03090
C3224       C  0.81767928  0.16073819  0.82292364    -0.04780
C3225       C  0.84048594  0.18202611  0.82697869    -0.01890
C3226       C  0.83816476  0.20948410  0.81279415     0.03090
C3227       C  0.77633119  0.19411334  0.75885505     0.37740
C3228       C  0.86454201  0.17662304  0.84764039     0.37730
C3229       C  0.85932598  0.23294569  0.81899421     0.36150
C3230       C  0.76923563  0.14667455  0.79800672     0.36150
N3231       N  0.87632010  0.25168594  0.82372204    -0.38670
N3232       N  0.74698470  0.13374789  0.79556487    -0.38670
N3233       N  0.88383030  0.17225686  0.86404041    -0.38110
N3234       N  0.76098202  0.19638860  0.73844325    -0.38120
C3235       C  0.74311806  0.83044514  0.28259490    -0.04780
C3236       C  0.71988754  0.82520606  0.30374053    -0.01900
C3237       C  0.69323806  0.84188444  0.30247147     0.03090
C3238       C  0.68790903  0.85947479  0.27759144    -0.04780
C3239       C  0.71112280  0.86373249  0.25680351    -0.01890
C3240       C  0.73988063  0.85440255  0.26330383     0.03090
C3241       C  0.72169018  0.80184621  0.32531410     0.37740
C3242       C  0.70411483  0.86870710  0.22598811     0.37730
C3243       C  0.76496979  0.86585795  0.24640424     0.36150
C3244       C  0.67050290  0.83928652  0.32519247     0.36150
N3245       N  0.78477884  0.87506401  0.23271587    -0.38670
N3246       N  0.65248024  0.83768139  0.34352887    -0.38670
N3247       N  0.69811859  0.87006852  0.20117730    -0.38110
N3248       N  0.72262411  0.78332812  0.34276648    -0.38120
C3249       C  0.78897922  0.68573311  0.33444136    -0.04780
C3250       C  0.76336139  0.69823369  0.32152012    -0.01900
C3251       C  0.76594620  0.72451343  0.30600422     0.03090
C3252       C  0.79396539  0.73901758  0.30444905    -0.04780
C3253       C  0.81961429  0.72654424  0.31725878    -0.01890
C3254       C  0.81709071  0.69967839  0.33240376     0.03090
C3255       C  0.73433966  0.68367957  0.32371345     0.37740
C3256       C  0.84846381  0.74090053  0.31403100     0.37730
C3257       C  0.84319276  0.68613124  0.34543239     0.36150
C3258       C  0.74006454  0.73559988  0.29012709     0.36150
N3259       N  0.86398703  0.67521317  0.35582939    -0.38670
N3260       N  0.71946341  0.74416826  0.27737477    -0.38670
N3261       N  0.87148708  0.75235070  0.31126460    -0.38110
N3262       N  0.71128816  0.67207601  0.32547096    -0.38120
C3263       C  0.82933037  0.76175983  0.15174447    -0.04780
C3264       C  0.80560999  0.74358030  0.16115065    -0.01900
C3265       C  0.79008148  0.75075688  0.18735266     0.03090
C3266       C  0.79903182  0.77561448  0.20410864    -0.04780
C3267       C  0.82078823  0.79522033  0.19297586    -0.01890
C3268       C  0.83532363  0.78867984  0.16630805     0.03090
C3269       C  0.79841214  0.71692473  0.14476820     0.37740
C3270       C  0.83086036  0.82020876  0.21054748     0.37730
C3271       C  0.85827417  0.80845953  0.15501904     0.36150
C3272       C  0.76605428  0.73194933  0.19788806     0.36150
N3273       N  0.87659872  0.82411093  0.14596287    -0.38670
N3274       N  0.74678884  0.71700720  0.20623374    -0.38670
N3275       N  0.83958134  0.83981040  0.22460342    -0.38110
N3276       N  0.79268551  0.69570094  0.13159028    -0.38120
C3277       C  0.28416472  0.78913932  0.20011353    -0.04780
C3278       C  0.26191427  0.78319939  0.17857850    -0.01900
C3279       C  0.25192289  0.80573250  0.16058849     0.03090
C3280       C  0.26747173  0.83260642  0.16060873    -0.04780
C3281       C  0.29112099  0.83808267  0.18072780    -0.01890
C3282       C  0.29855980  0.81660438  0.20149895     0.03090
C3283       C  0.25038678  0.75358552  0.17344332     0.37740
C3284       C  0.30924950  0.86461315  0.17850269     0.37730
C3285       C  0.32195656  0.82205032  0.22302776     0.36150
C3286       C  0.22640109  0.80088898  0.14121127     0.36150
N3287       N  0.34064965  0.82650676  0.24015663    -0.38670
N3288       N  0.20609898  0.79695866  0.12583063    -0.38670
N3289       N  0.32384285  0.88560756  0.17623173    -0.38110
N3290       N  0.24097930  0.73021677  0.16878300    -0.38120
C3291       C  0.32594316  0.69289354  0.20145775    -0.04780
C3292       C  0.33169083  0.68464668  0.17203669    -0.01900
C3293       C  0.35206460  0.66182245  0.16619507     0.03090
C3294       C  0.36327313  0.64503583  0.18988036    -0.04780
C3295       C  0.35684504  0.65386851  0.21961672    -0.01890
C3296       C  0.34024225  0.67910917  0.22498475     0.03090
C3297       C  0.31635188  0.69937569  0.14814903     0.37740
C3298       C  0.36669946  0.63790289  0.24549157     0.37730
C3299       C  0.33783968  0.69114893  0.25492551     0.36150
C3300       C  0.36236692  0.65699517  0.13623212     0.36150
N3301       N  0.33613921  0.70087626  0.27859960    -0.38670
N3302       N  0.37065476  0.65474029  0.11207591    -0.38670
N3303       N  0.37323628  0.62663815  0.26743390    -0.38110
N3304       N  0.30370939  0.71107921  0.12930589    -0.38120
C3305       C  0.23323421  0.71834551  0.25490833    -0.04780
C3306       C  0.23224871  0.69383319  0.27425643    -0.01900
C3307       C  0.20743380  0.68989547  0.29307223     0.03090
C3308       C  0.18533632  0.71189580  0.29465302    -0.04780
C3309       C  0.18634853  0.73601635  0.27512042    -0.01890
C3310       C  0.20816834  0.73719421  0.25318096     0.03090
C3311       C  0.25724968  0.67370202  0.27647808     0.37740
C3312       C  0.16913923  0.76255912  0.28110284     0.37730
C3313       C  0.20513288  0.75937030  0.23036699     0.36150
C3314       C  0.20623401  0.66502289  0.31307810     0.36150
N3315       N  0.20134576  0.77762910  0.21305017    -0.38670
N3316       N  0.20548572  0.64528664  0.32914149    -0.38670
N3317       N  0.15663156  0.78411697  0.28689812    -0.38110
N3318       N  0.27704994  0.65741823  0.27788209    -0.38120
C3319       C  0.37443227  0.46077673  0.56071525    -0.04780
C3320       C  0.36230305  0.48943246  0.55794574    -0.01900
C3321       C  0.33468424  0.49288170  0.54440439     0.03090
C3322       C  0.32202081  0.46911248  0.52877675    -0.04780
C3323       C  0.33670262  0.44170145  0.52709840    -0.01890
C3324       C  0.36243669  0.43712343  0.54431415     0.03090
C3325       C  0.37634173  0.51502374  0.57163895     0.37740
C3326       C  0.32440072  0.41801601  0.50921401     0.37730
C3327       C  0.37569214  0.40813290  0.54638593     0.36150
C3328       C  0.31774125  0.51977743  0.54958887     0.36150
N3329       N  0.38630757  0.38498811  0.54809943    -0.38670
N3330       N  0.30408642  0.54096659  0.55414042    -0.38670
N3331       N  0.31471838  0.39913502  0.49477102    -0.38110
N3332       N  0.38694719  0.53590663  0.58213008    -0.38120
C3333       C  0.16279157  0.42291235  0.53823307    -0.04780
C3334       C  0.18734235  0.41656562  0.55639831    -0.01900
C3335       C  0.21387606  0.43215256  0.55064817     0.03090
C3336       C  0.21200512  0.46153059  0.53965592    -0.04780
C3337       C  0.18292311  0.47254575  0.53456070    -0.01890
C3338       C  0.16045934  0.45206042  0.52734946     0.03090
C3339       C  0.18722889  0.39020862  0.57438461     0.37740
C3340       C  0.17675713  0.50382129  0.53316722     0.37730
C3341       C  0.14195759  0.45878042  0.50218991     0.36150
C3342       C  0.24068071  0.41473598  0.54682311     0.36150
N3343       N  0.12887643  0.46368438  0.48078761    -0.38670
N3344       N  0.26213934  0.40121743  0.54230517    -0.38670
N3345       N  0.17170810  0.52878706  0.53211839    -0.38110
N3346       N  0.18644199  0.36907055  0.58855436    -0.38120
C3347       C  0.25762711  0.57169899  0.42006251    -0.04780
C3348       C  0.28304228  0.56871343  0.43798400    -0.01900
C3349       C  0.28403609  0.54654696  0.45931428     0.03090
C3350       C  0.26080786  0.52495386  0.46081407    -0.04780
C3351       C  0.23612099  0.52720501  0.44127180    -0.01890
C3352       C  0.23378426  0.55153671  0.42235541     0.03090
C3353       C  0.30937459  0.58704710  0.43287337     0.37740
C3354       C  0.21409561  0.50374111  0.43913242     0.37730
C3355       C  0.20707060  0.55597251  0.40488965     0.36150
C3356       C  0.30988315  0.54636714  0.47863346     0.36150
N3357       N  0.18584063  0.56042578  0.39110102    -0.38670
N3358       N  0.33158123  0.54717261  0.49250511    -0.38670
N3359       N  0.19669858  0.48482012  0.43801483    -0.38110
N3360       N  0.33047122  0.60121744  0.42835464    -0.38120
C3361       C  0.56015086  0.46647830  0.68302336    -0.04780
C3362       C  0.53653385  0.45749212  0.66471192    -0.01900
C3363       C  0.54042784  0.43261799  0.64697828     0.03090
C3364       C  0.56960092  0.42077751  0.64257272    -0.04780
C3365       C  0.59447540  0.43456159  0.65577904    -0.01890
C3366       C  0.58965219  0.45731248  0.67652933     0.03090
C3367       C  0.50697843  0.47068856  0.66735462     0.37740
C3368       C  0.62440450  0.42364910  0.65010331     0.37730
C3369       C  0.61441878  0.46960793  0.69315013     0.36150
C3370       C  0.51345529  0.41735819  0.63751317     0.36150
N3371       N  0.63411765  0.47951131  0.70649300    -0.38670
N3372       N  0.49093748  0.40605766  0.63166374    -0.38670
N3373       N  0.64831503  0.41492291  0.64562484    -0.38110
N3374       N  0.48341837  0.48109774  0.66910486    -0.38120
C3375       C  0.45381247  0.56459076  0.74350821    -0.04780
C3376       C  0.48299333  0.57144389  0.75390367    -0.01900
C3377       C  0.50367542  0.54895811  0.75947981     0.03090
C3378       C  0.49606080  0.51962367  0.75328819    -0.04780
C3379       C  0.46714266  0.51219659  0.74387108    -0.01890
C3380       C  0.44632185  0.53449622  0.73836768     0.03090
C3381       C  0.49359872  0.60133260  0.75599670     0.37740
C3382       C  0.45936575  0.48147787  0.73843565     0.37730
C3383       C  0.41812865  0.52604656  0.72523832     0.36150
C3384       C  0.53328822  0.55612681  0.77066778     0.36150
N3385       N  0.39549941  0.51882517  0.71529293    -0.38670
N3386       N  0.55658908  0.56240918  0.77991388    -0.38670
N3387       N  0.45321388  0.45703131  0.73412602    -0.38110
N3388       N  0.50385266  0.62467606  0.75582722    -0.38120
C3389       C  0.61375985  0.44313699  0.83174008    -0.04780
C3390       C  0.61265843  0.46967763  0.81532320    -0.01900
C3391       C  0.59321243  0.47206240  0.79170477     0.03090
C3392       C  0.57112568  0.45038585  0.78722171    -0.04780
C3393       C  0.57080835  0.42445803  0.80411054    -0.01890
C3394       C  0.59295268  0.42034927  0.82588707     0.03090
C3395       C  0.62911742  0.49609611  0.82371492     0.37740
C3396       C  0.54761320  0.40259141  0.79932332     0.37730
C3397       C  0.59378894  0.39338480  0.84279966     0.36150
C3398       C  0.59593562  0.49728977  0.77204311     0.36150
N3399       N  0.59447308  0.37180143  0.85625881    -0.38670
N3400       N  0.59869843  0.51709152  0.75626395    -0.38670
N3401       N  0.52887391  0.38530900  0.79555449    -0.38110
N3402       N  0.64095903  0.51815501  0.82935178    -0.38120
C3403       C  0.48478524  0.72944326  0.03618367    -0.04780
C3404       C  0.46648426  0.75271085  0.04560303    -0.01900
C3405       C  0.44411849  0.74730951  0.06630196     0.03090
C3406       C  0.43744256  0.71791659  0.07428750    -0.04780
C3407       C  0.45249878  0.69427137  0.06104587    -0.01890
C3408       C  0.47708082  0.69993465  0.04261884     0.03090
C3409       C  0.46871817  0.78149746  0.03203237     0.37740
C3410       C  0.44203622  0.66456351  0.06600970     0.37730
C3411       C  0.49394722  0.67556469  0.03021760     0.36150
C3412       C  0.42792930  0.77209776  0.07906652     0.36150
N3413       N  0.50688221  0.65580456  0.02023518    -0.38670
N3414       N  0.41535941  0.79204409  0.08916713    -0.38670
N3415       N  0.43263462  0.64117857  0.06992908    -0.38110
N3416       N  0.46872136  0.80425000  0.02065073    -0.38120
C3417       C  0.55319652  0.71458949  0.95439733    -0.04780
C3418       C  0.55679461  0.68443103  0.95959643    -0.01900
C3419       C  0.54549993  0.66398094  0.93922324     0.03090
C3420       C  0.53685936  0.67307938  0.91047740    -0.04780
C3421       C  0.53705439  0.70399802  0.90428470    -0.01890
C3422       C  0.54452524  0.72452250  0.92655347     0.03090
C3423       C  0.56847488  0.67466880  0.98786508     0.37740
C3424       C  0.52625683  0.71580802  0.87677891     0.37730
C3425       C  0.54136621  0.75599113  0.92167271     0.36150
C3426       C  0.53843239  0.63487243  0.95019716     0.36150
N3427       N  0.53874062  0.78102193  0.91775002    -0.38670
N3428       N  0.53279433  0.61198233  0.95979733    -0.38670
N3429       N  0.51576674  0.72596777  0.85588742    -0.38110
N3430       N  0.57779368  0.66705265  0.01039090    -0.38120
C3431       C  0.62596541  0.82231255  0.03732421    -0.04780
C3432       C  0.60012497  0.82513443  0.05521561    -0.01900
C3433       C  0.57744708  0.80428619  0.05037238     0.03090
C3434       C  0.58541766  0.77570816  0.04063427    -0.04780
C3435       C  0.61589240  0.76947163  0.03671329    -0.01890
C3436       C  0.63398896  0.79321229  0.02812736     0.03090
C3437       C  0.59311830  0.85236838  0.07065324     0.37740
C3438       C  0.62580132  0.73932144  0.03223631     0.37730
C3439       C  0.65158664  0.78810690  0.00179460     0.36150
C3440       C  0.54824646  0.81558057  0.04344560     0.36150
N3441       N  0.66349163  0.78344615  0.97955931    -0.38670
N3442       N  0.52592818  0.82482957  0.03485234    -0.38670
N3443       N  0.63361299  0.71528672  0.02856044    -0.38110
N3444       N  0.58659034  0.87384828  0.08295101    -0.38120
C3445       C  0.10150592  0.42696937  0.69069098    -0.04780
C3446       C  0.10529296  0.45278462  0.70818262    -0.01900
C3447       C  0.08894872  0.47802882  0.70186632     0.03090
C3448       C  0.06354797  0.47552389  0.68378556    -0.04780
C3449       C  0.06087056  0.45106432  0.66442570    -0.01890
C3450       C  0.08068653  0.42708029  0.66724912     0.03090
C3451       C  0.12204000  0.45249503  0.73558832     0.37740
C3452       C  0.03770893  0.45045605  0.64213741     0.37730
C3453       C  0.07897721  0.40226850  0.64697244     0.36150
C3454       C  0.09591058  0.50568707  0.71684771     0.36150
N3455       N  0.07782056  0.38246607  0.63075047    -0.38670
N3456       N  0.10147621  0.52756722  0.72895953    -0.38670
N3457       N  0.01939778  0.45090116  0.62410958    -0.38110
N3458       N  0.13435293  0.45259617  0.75802400    -0.38120
C3459       C  0.92193089  0.53898880  0.62179566    -0.04780
C3460       C  0.92926262  0.50998683  0.63109889    -0.01900
C3461       C  0.95318242  0.50558582  0.65010448     0.03090
C3462       C  0.97048916  0.52972275  0.65940424    -0.04780
C3463       C  0.96286122  0.55870886  0.65130965    -0.01890
C3464       C  0.93844827  0.56334183  0.63230324     0.03090
C3465       C  0.91227579  0.48409082  0.62213575     0.37740
C3466       C  0.97950628  0.58360723  0.66306337     0.37730
C3467       C  0.93002433  0.59293596  0.62392849     0.36150
C3468       C  0.95896924  0.47617063  0.66158193     0.36150
N3469       N  0.92326047  0.61657057  0.61730396    -0.38670
N3470       N  0.96335178  0.45290716  0.67093107    -0.38670
N3471       N  0.99244582  0.60371040  0.67245381    -0.38110
N3472       N  0.89985490  0.46243480  0.61613574    -0.38120
C3473       C  0.01527215  0.57178528  0.80666815    -0.04780
C3474       C  0.02111840  0.58143047  0.77713834    -0.01900
C3475       C  0.02333071  0.56116735  0.75409313     0.03090
C3476       C  0.01217951  0.53263266  0.75784856    -0.04780
C3477       C  0.00592777  0.52202963  0.78609952    -0.01890
C3478       C  0.00960580  0.54085461  0.81078630     0.03090
C3479       C  0.02311391  0.61189226  0.76831804     0.37740
C3480       C  0.99606710  0.49171913  0.78964249     0.37730
C3481       C  0.00747298  0.52722514  0.83953248     0.36150
C3482       C  0.03675084  0.56989656  0.72598511     0.36150
N3483       N  0.00455097  0.51509775  0.86177405    -0.38670
N3484       N  0.04778788  0.57667737  0.70384796    -0.38670
N3485       N  0.98816482  0.46758873  0.79252340    -0.38110
N3486       N  0.02608785  0.63560796  0.75970926    -0.38120
C3487       C  0.09260584  0.69566697  0.95363071    -0.04780
C3488       C  0.11745509  0.67754688  0.94823972    -0.01900
C3489       C  0.13047378  0.67688185  0.91984950     0.03090
C3490       C  0.11964577  0.69588794  0.89769729    -0.04780
C3491       C  0.09272234  0.71181284  0.90277706    -0.01890
C3492       C  0.07823175  0.70982015  0.93014230     0.03090
C3493       C  0.13016165  0.66074418  0.97221841     0.37740
C3494       C  0.08228510  0.73423619  0.88253503     0.37730
C3495       C  0.04958885  0.72427666  0.93482300     0.36150
C3496       C  0.15670780  0.65901083  0.91428278     0.36150
N3497       N  0.02651169  0.73532651  0.93821662    -0.38670
N3498       N  0.17779051  0.64488496  0.90998240    -0.38670
N3499       N  0.07358679  0.75297316  0.86764700    -0.38110
N3500       N  0.14008813  0.64729558  0.99146864    -0.38120
C3501       C  0.95749917  0.66999752  0.02211909    -0.04780
C3502       C  0.96164290  0.70109065  0.01810215    -0.01900
C3503       C  0.99018447  0.71413446  0.02125992     0.03090
C3504       C  0.01486592  0.69682193  0.02903238    -0.04780
C3505       C  0.01033450  0.66776712  0.03813536    -0.01890
C3506       C  0.98207214  0.65426520  0.03490686     0.03090
C3507       C  0.93793274  0.72042223  0.00854957     0.37740
C3508       C  0.03565265  0.65128381  0.04945065     0.37730
C3509       C  0.97988878  0.62404927  0.04457107     0.36150
C3510       C  0.99446328  0.74511109  0.01419448     0.36150
N3511       N  0.97847813  0.60026973  0.05353067    -0.38670
N3512       N  0.99730716  0.76981903  0.00862782    -0.38670
N3513       N  0.05589300  0.63827117  0.05837280    -0.38110
N3514       N  0.92100632  0.73689578  0.99878788    -0.38120
C3515       C  0.09144518  0.77508040  0.02769626    -0.04780
C3516       C  0.10793825  0.78118456  0.05344830    -0.01900
C3517       C  0.10254108  0.80743734  0.06937183     0.03090
C3518       C  0.07948043  0.82645700  0.06013030    -0.04780
C3519       C  0.06621837  0.82207692  0.03196329    -0.01890
C3520       C  0.07397349  0.79732078  0.01499386     0.03090
C3521       C  0.12899788  0.75963890  0.06422081     0.37740
C3522       C  0.04119666  0.83984512  0.02214629     0.37730
C3523       C  0.06146328  0.79339423  0.98566927     0.36150
C3524       C  0.11878700  0.81371635  0.09639237     0.36150
N3525       N  0.05148018  0.79127827  0.96218196    -0.38670
N3526       N  0.13176716  0.81881289  0.11794377    -0.38670
N3527       N  0.02076626  0.85312301  0.01405378    -0.38110
N3528       N  0.14595842  0.74241855  0.07259409    -0.38120
C3529       C  0.99475937  0.06294738  0.70949080    -0.04780
C3530       C  0.98134959  0.07609471  0.68465607    -0.01900
C3531       C  0.95222873  0.08724955  0.68696978     0.03090
C3532       C  0.93696799  0.08579561  0.71419091    -0.04780
C3533       C  0.94926598  0.07066498  0.73827825    -0.01890
C3534       C  0.97807828  0.05880161  0.73582696     0.03090
C3535       C  0.99785574  0.07919026  0.65714664     0.37740
C3536       C  0.93280404  0.06860935  0.76595715     0.37730
C3537       C  0.99046129  0.04246706  0.76041725     0.36150
C3538       C  0.93823281  0.10118510  0.66176580     0.36150
N3539       N  0.00027586  0.02950826  0.78007290    -0.38670
N3540       N  0.92693966  0.11220231  0.64169757    -0.38670
N3541       N  0.91963829  0.06705128  0.78798776    -0.38110
N3542       N  0.01099567  0.08152913  0.63517941    -0.38120
C3543       C  0.06069048  0.98446704  0.67757571    -0.04780
C3544       C  0.04116450  0.96248169  0.68843333    -0.01900
C3545       C  0.03674319  0.93642919  0.67226658     0.03090
C3546       C  0.05166480  0.93224774  0.64484164    -0.04780
C3547       C  0.07205349  0.95391020  0.63464360    -0.01890
C3548       C  0.07707782  0.97968013  0.65143743     0.03090
C3549       C  0.02350594  0.96764087  0.71504425     0.37740
C3550       C  0.08586449  0.95121913  0.60577957     0.37730
C3551       C  0.09749230  0.00224905  0.64087209     0.36150
C3552       C  0.01436060  0.91549039  0.68265535     0.36150
N3553       N  0.11380214  0.02028161  0.63256570    -0.38670
N3554       N  0.99649719  0.89896360  0.69104252    -0.38670
N3555       N  0.09630858  0.95029907  0.58237364    -0.38110
N3556       N  0.00896378  0.97155148  0.73592970    -0.38120
C3557       C  0.11940414  0.05543133  0.81428455    -0.04780
C3558       C  0.10794908  0.02776608  0.80465930    -0.01900
C3559       C  0.09336058  0.02522723  0.77749808     0.03090
C3560       C  0.09120032  0.04985773  0.75873645    -0.04780
C3561       C  0.10265169  0.07748479  0.76816058    -0.01890
C3562       C  0.11669560  0.08024531  0.79598573     0.03090
C3563       C  0.11166960  0.00108409  0.82190568     0.37740
C3564       C  0.10022855  0.10294873  0.74914490     0.37730
C3565       C  0.12854216  0.10842999  0.80575626     0.36150
C3566       C  0.08019197  0.99691119  0.76951297     0.36150
N3567       N  0.13798129  0.13092990  0.81360669    -0.38670
N3568       N  0.07048222  0.97386370  0.76400359    -0.38670
N3569       N  0.09816685  0.12328636  0.73399502    -0.38110
N3570       N  0.11397355  0.97908680  0.83450446    -0.38120
C3571       C  0.67038646  0.02120257  0.91512800    -0.04780
C3572       C  0.69203025  0.00109866  0.92506462    -0.01900
C3573       C  0.70615055  0.00594468  0.95221101     0.03090
C3574       C  0.69896981  0.03121739  0.96928584    -0.04780
C3575       C  0.67927484  0.05257292  0.95812236    -0.01890
C3576       C  0.66465473  0.04738985  0.93104644     0.03090
C3577       C  0.69858163  0.97451872  0.90810717     0.37740
C3578       C  0.67306995  0.07905080  0.97512555     0.37730
C3579       C  0.64326765  0.06848606  0.91985737     0.36150
C3580       C  0.72670742  0.98385967  0.96319769     0.36150
N3581       N  0.62617943  0.08527992  0.91087772    -0.38670
N3582       N  0.74264819  0.96572676  0.97159886    -0.38670
N3583       N  0.66823870  0.10021952  0.98870317    -0.38110
N3584       N  0.70382505  0.95342137  0.89455583    -0.38120
C3585       C  0.71505773  0.97452616  0.05615533    -0.04780
C3586       C  0.68798301  0.96284443  0.06738512    -0.01900
C3587       C  0.68665226  0.93326721  0.07659164     0.03090
C3588       C  0.71225499  0.91536566  0.07478332    -0.04780
C3589       C  0.73888245  0.92672370  0.06189409    -0.01890
C3590       C  0.74011177  0.95594576  0.05240638     0.03090
C3591       C  0.66178351  0.98143239  0.07017840     0.37740
C3592       C  0.76621893  0.90950073  0.05997727     0.37730
C3593       C  0.76772904  0.96654555  0.03897958     0.36150
C3594       C  0.65931401  0.92131885  0.08884618     0.36150
N3595       N  0.79029342  0.97400692  0.02881925    -0.38670
N3596       N  0.63758123  0.91150985  0.09865902    -0.38670
N3597       N  0.78869036  0.89701118  0.05797114    -0.38110
N3598       N  0.64085915  0.99626610  0.07226847    -0.38120
C3599       C  0.83862518  0.08242442  0.03692787    -0.04780
C3600       C  0.81798586  0.08905494  0.05968356    -0.01900
C3601       C  0.78930495  0.07593230  0.05950462     0.03090
C3602       C  0.78105302  0.05698570  0.03600782    -0.04780
C3603       C  0.80266628  0.04848100  0.01471719    -0.01890
C3604       C  0.83155154  0.06048188  0.01565977     0.03090
C3605       C  0.82591919  0.11036493  0.08238540     0.37740
C3606       C  0.79513996  0.02848044  0.99064105     0.37730
C3607       C  0.85302855  0.05181723  0.99295061     0.36150
C3608       C  0.76778007  0.08318172  0.08245361     0.36150
N3609       N  0.86996569  0.04465001  0.97487208    -0.38670
N3610       N  0.75057479  0.08884074  0.10080292    -0.38670
N3611       N  0.79008537  0.01292638  0.97089975    -0.38110
N3612       N  0.83229931  0.12740129  0.10047283    -0.38120
C3613       C  0.78570493  0.02667925  0.41159644    -0.04780
C3614       C  0.81414619  0.03533837  0.40079275    -0.01900
C3615       C  0.81597801  0.05517241  0.37713273     0.03090
C3616       C  0.78950440  0.06461786  0.36352350    -0.04780
C3617       C  0.76171234  0.05133963  0.37074288    -0.01890
C3618       C  0.75965364  0.03295406  0.39523613     0.03090
C3619       C  0.84119146  0.02544248  0.41529847     0.37740
C3620       C  0.73413052  0.06041517  0.35653162     0.37730
C3621       C  0.73004057  0.02421567  0.40564398     0.36150
C3622       C  0.84449509  0.06797144  0.36862643     0.36150
N3623       N  0.70640398  0.01747581  0.41379271    -0.38670
N3624       N  0.86724537  0.07827517  0.36191853    -0.38670
N3625       N  0.71162402  0.06749877  0.34626777    -0.38110
N3626       N  0.86270602  0.01746094  0.42690900    -0.38120
C3627       C  0.73594815  0.96178186  0.48435568    -0.04780
C3628       C  0.70901033  0.96689709  0.50001241    -0.01900
C3629       C  0.68793351  0.94414286  0.50277026     0.03090
C3630       C  0.69259978  0.91716654  0.48778491    -0.04780
C3631       C  0.71977379  0.91181616  0.47270778    -0.01890
C3632       C  0.74200429  0.93362453  0.47227706     0.03090
C3633       C  0.70206587  0.99589157  0.51189631     0.37740
C3634       C  0.72429686  0.88461441  0.45619868     0.37730
C3635       C  0.77094980  0.92714313  0.45904760     0.36150
C3636       C  0.66132685  0.94856260  0.52082575     0.36150
N3637       N  0.79397242  0.92193600  0.44846008    -0.38670
N3638       N  0.64013341  0.95195943  0.53522896    -0.38670
N3639       N  0.72783102  0.86301476  0.44291392    -0.38110
N3640       N  0.69644875  0.01899419  0.52133423    -0.38120
C3641       C  0.85141980  0.04689502  0.56190593    -0.04780
C3642       C  0.84845252  0.01791276  0.55006092    -0.01900
C3643       C  0.82968944  0.01270077  0.52621479     0.03090
C3644       C  0.80991703  0.03479001  0.51711996    -0.04780
C3645       C  0.81120614  0.06323986  0.52970832    -0.01890
C3646       C  0.83286453  0.06963732  0.55149635     0.03090
C3647       C  0.86225081  0.99229146  0.56331284     0.37740
C3648       C  0.78984011  0.08534037  0.52076652     0.37730
C3649       C  0.83553512  0.09911122  0.56371662     0.36150
C3650       C  0.83034256  0.98404907  0.51138019     0.36150
N3651       N  0.83773079  0.12267872  0.57342209    -0.38670
N3652       N  0.83090141  0.96126279  0.49974799    -0.38670
N3653       N  0.77242076  0.10270251  0.51369453    -0.38110
N3654       N  0.87185922  0.97070531  0.57286602    -0.38120
C3655       C  0.98240033  0.75189240  0.52614877    -0.04780
C3656       C  0.95924762  0.77219382  0.52117043    -0.01900
C3657       C  0.93328814  0.77100983  0.53882297     0.03090
C3658       C  0.93074354  0.74920352  0.56072186    -0.04780
C3659       C  0.95257513  0.72717679  0.56356486    -0.01890
C3660       C  0.97878575  0.72894849  0.54689514     0.03090
C3661       C  0.96283817  0.79497621  0.49913170     0.37740
C3662       C  0.94861286  0.70346731  0.58473610     0.37730
C3663       C  0.00282571  0.70822380  0.55255265     0.36150
C3664       C  0.90985905  0.79274256  0.53546988     0.36150
N3665       N  0.02201943  0.69184679  0.55719250    -0.38670
N3666       N  0.89104055  0.80998137  0.53288574    -0.38670
N3667       N  0.94543137  0.68464798  0.60161797    -0.38110
N3668       N  0.96565376  0.81316695  0.48151512    -0.38120
C3669       C  0.04861012  0.70530655  0.45640074    -0.04780
C3670       C  0.03116086  0.67943118  0.45826563    -0.01900
C3671       C  0.03448471  0.65716648  0.43704047     0.03090
C3672       C  0.05506524  0.66016867  0.41348735    -0.04780
C3673       C  0.07438939  0.68472763  0.41310390    -0.01890
C3674       C  0.07062150  0.70773920  0.43394886     0.03090
C3675       C  0.00878948  0.67551254  0.48137503     0.37740
C3676       C  0.09881130  0.68516477  0.39202789     0.37730
C3677       C  0.08789867  0.73460763  0.43123252     0.36150
C3678       C  0.01600766  0.63129009  0.43968370     0.36150
N3679       N  0.10111353  0.75645189  0.42917088    -0.38670
N3680       N  0.00153579  0.61049502  0.44271265    -0.38670
N3681       N  0.11854458  0.68399750  0.37545562    -0.38110
N3682       N  0.99013541  0.67148147  0.49871042    -0.38120
C3683       C  0.12071509  0.81256996  0.53118978    -0.04780
C3684       C  0.10107239  0.81206016  0.55587109    -0.01900
C3685       C  0.08675628  0.78522505  0.56313127     0.03090
C3686       C  0.09050726  0.76069010  0.54411861    -0.04780
C3687       C  0.11864419  0.75921921  0.53071769    -0.01890
C3688       C  0.12929178  0.78521200  0.51833927     0.03090
C3689       C  0.09413172  0.83843680  0.57253256     0.37740
C3690       C  0.13339484  0.73131950  0.52546729     0.37730
C3691       C  0.14155928  0.78362631  0.48883104     0.36150
C3692       C  0.06822687  0.78266005  0.58929549     0.36150
N3693       N  0.14964311  0.78277553  0.46457791    -0.38670
N3694       N  0.05326640  0.78062412  0.61011915    -0.38670
N3695       N  0.14524593  0.70905055  0.52121503    -0.38110
N3696       N  0.08767718  0.85899389  0.58634875    -0.38120
C3697       C  0.73190292  0.28731133  0.17770090    -0.04780
C3698       C  0.70719567  0.28505929  0.15845700    -0.01900
C3699       C  0.70567799  0.30369345  0.13365827     0.03090
C3700       C  0.72960593  0.32308805  0.12773555    -0.04780
C3701       C  0.75566599  0.32267196  0.14544380    -0.01890
C3702       C  0.75557623  0.30694040  0.17162217     0.03090
C3703       C  0.68283547  0.26500932  0.16521165     0.37740
C3704       C  0.78229328  0.33959502  0.13786072     0.37730
C3705       C  0.77775738  0.31423890  0.19408100     0.36150
C3706       C  0.67955040  0.30351219  0.11478334     0.36150
N3707       N  0.79490344  0.32068208  0.21216256    -0.38670
N3708       N  0.65869675  0.30336087  0.09966789    -0.38670
N3709       N  0.80393017  0.35261751  0.13241753    -0.38110
N3710       N  0.66340100  0.24897987  0.17065397    -0.38120
C3711       C  0.70615331  0.29167484  0.28169284    -0.04780
C3712       C  0.69917610  0.31982501  0.29281325    -0.01900
C3713       C  0.67656512  0.32277784  0.31439972     0.03090
C3714       C  0.66392863  0.29730301  0.32712216    -0.04780
C3715       C  0.67019947  0.26913872  0.31452046    -0.01890
C3716       C  0.69012111  0.26674487  0.29098075     0.03090
C3717       C  0.71550616  0.34532980  0.28228300     0.37740
C3718       C  0.65638117  0.24205995  0.32483435     0.37730
C3719       C  0.69367348  0.23851048  0.27574405     0.36150
C3720       C  0.66453031  0.35155434  0.32127081     0.36150
N3721       N  0.69631148  0.21615896  0.26354664    -0.38670
N3722       N  0.65430124  0.37461882  0.32531358    -0.38670
N3723       N  0.64643755  0.21949762  0.33165868    -0.38110
N3724       N  0.72912074  0.36540880  0.27401891    -0.38120
C3725       C  0.79181085  0.23302714  0.24923047    -0.04780
C3726       C  0.79106751  0.21431154  0.27441920    -0.01900
C3727       C  0.81342228  0.19296372  0.27808642     0.03090
C3728       C  0.83454384  0.18831298  0.25565772    -0.04780
C3729       C  0.83572529  0.20685315  0.23092544    -0.01890
C3730       C  0.81592491  0.23047910  0.22886507     0.03090
C3731       C  0.76691328  0.21534713  0.29591306     0.37740
C3732       C  0.85542190  0.19987578  0.20619200     0.37730
C3733       C  0.82065204  0.25155079  0.20532407     0.36150
C3734       C  0.81455287  0.17500553  0.30440092     0.36150
N3735       N  0.82535053  0.26759881  0.18608413    -0.38670
N3736       N  0.81645707  0.16061139  0.32528464    -0.38670
N3737       N  0.87050621  0.19357439  0.18629679    -0.38110
N3738       N  0.74813825  0.21577194  0.31361828    -0.38120
C3739       C  0.24810280  0.70850025  0.74499171    -0.04780
C3740       C  0.27127257  0.68731803  0.74597601    -0.01900
C3741       C  0.26992870  0.66506402  0.76726068     0.03090
C3742       C  0.24370384  0.66139594  0.78428036    -0.04780
C3743       C  0.21765703  0.67689981  0.77674226    -0.01890
C3744       C  0.21966870  0.70002808  0.75615666     0.03090
C3745       C  0.29641232  0.68786766  0.72567371     0.37740
C3746       C  0.18962709  0.67028645  0.79150717     0.37730
C3747       C  0.19314553  0.71631029  0.74790326     0.36150
C3748       C  0.29679905  0.64863588  0.77416706     0.36150
N3749       N  0.17195026  0.72929833  0.74137613    -0.38670
N3750       N  0.31843382  0.63616067  0.78021499    -0.38670
N3751       N  0.16728829  0.66474725  0.80328592    -0.38110
N3752       N  0.31632924  0.68734082  0.70922437    -0.38120
C3753       C  0.36360560  0.78908183  0.67084848    -0.04780
C3754       C  0.36386375  0.76638593  0.69213865    -0.01900
C3755       C  0.34390085  0.76714861  0.71599355     0.03090
C3756       C  0.32025974  0.78755478  0.71604962    -0.04780
C3757       C  0.32137376  0.81176705  0.69654632    -0.01890
C3758       C  0.34355309  0.81282048  0.67425629     0.03090
C3759       C  0.38054569  0.73957640  0.68681315     0.37740
C3760       C  0.29928875  0.83490625  0.69861248     0.37730
C3761       C  0.34431574  0.83701841  0.65347552     0.36150
C3762       C  0.34637810  0.74561775  0.73949948     0.36150
N3763       N  0.34488222  0.85634148  0.63690621    -0.38670
N3764       N  0.34850499  0.72858060  0.75830174    -0.38670
N3765       N  0.28195074  0.85365484  0.70076031    -0.38110
N3766       N  0.39286824  0.71779885  0.68168997    -0.38120
C3767       C  0.18027128  0.84780872  0.78602567    -0.04780
C3768       C  0.19512568  0.83408114  0.80958777    -0.01900
C3769       C  0.22078744  0.81688918  0.80381897     0.03090
C3770       C  0.22984181  0.81152476  0.77439903    -0.04780
C3771       C  0.21371144  0.82365136  0.75073311    -0.01890
C3772       C  0.18942942  0.84211343  0.75644093     0.03090
C3773       C  0.18262008  0.83595684  0.83910882     0.37740
C3774       C  0.22102482  0.81580683  0.72025202     0.37730
C3775       C  0.17308787  0.85370025  0.73135556     0.36150
C3776       C  0.23835611  0.80519526  0.82778771     0.36150
N3777       N  0.16065511  0.86212735  0.71066744    -0.38670
N3778       N  0.25323596  0.79620951  0.84652706    -0.38670
N3779       N  0.22653862  0.80943490  0.69601199    -0.38110
N3780       N  0.17185586  0.83710049  0.86240628    -0.38120
C3781       C  0.27062957  0.17054826  0.30375905    -0.04780
C3782       C  0.24007903  0.16886100  0.29615211    -0.01900
C3783       C  0.23040956  0.18137255  0.26990002     0.03090
C3784       C  0.25062283  0.19796632  0.25282276    -0.04780
C3785       C  0.28033437  0.20289837  0.26254870    -0.01890
C3786       C  0.29059549  0.18848667  0.28793049     0.03090
C3787       C  0.21899763  0.15241577  0.31437636     0.37740
C3788       C  0.30064465  0.22134639  0.24566252     0.37730
C3789       C  0.32159763  0.19105958  0.29710542     0.36150
C3790       C  0.20103205  0.17353579  0.25867281     0.36150
N3791       N  0.34632156  0.19309069  0.30445260    -0.38670
N3792       N  0.17793776  0.16604948  0.24984194    -0.38670
N3793       N  0.31707967  0.23602735  0.23242531    -0.38110
N3794       N  0.20234946  0.13934468  0.32898273    -0.38120
C3795       C  0.18867927  0.25620809  0.18326735    -0.04780
C3796       C  0.19385711  0.27881610  0.16204945    -0.01900
C3797       C  0.17876211  0.30608409  0.16466032     0.03090
C3798       C  0.16113956  0.31183142  0.18985437    -0.04780
C3799       C  0.15676824  0.28946294  0.21093393    -0.01890
C3800       C  0.16651489  0.26093226  0.20508025     0.03090
C3801       C  0.21536985  0.27508467  0.13837984     0.37740
C3802       C  0.14800790  0.29683338  0.24099299     0.37730
C3803       C  0.15519012  0.23711751  0.22325964     0.36150
C3804       C  0.18297124  0.32892810  0.14275917     0.36150
N3805       N  0.14540527  0.21880112  0.23813100    -0.38670
N3806       N  0.18616879  0.34725213  0.12534845    -0.38670
N3807       N  0.14297432  0.30312110  0.26531846    -0.38110
N3808       N  0.23246091  0.27187162  0.11937004    -0.38120
C3809       C  0.33409816  0.20622398  0.12975819    -0.04780
C3810       C  0.32006041  0.23109694  0.14243346    -0.01900
C3811       C  0.29140670  0.22852181  0.15430442     0.03090
C3812       C  0.27588848  0.20127791  0.15240904    -0.04780
C3813       C  0.28996160  0.17636331  0.13982324    -0.01890
C3814       C  0.31910070  0.17897037  0.12816513     0.03090
C3815       C  0.33496140  0.25972241  0.14295637     0.37740
C3816       C  0.27503573  0.14794889  0.14026296     0.37730
C3817       C  0.33379359  0.15386681  0.11470600     0.36150
C3818       C  0.27935932  0.25344697  0.17085494     0.36150
N3819       N  0.34572086  0.13398732  0.10380511    -0.38670
N3820       N  0.27057522  0.27347363  0.18424506    -0.38670
N3821       N  0.26320607  0.12522891  0.14090124    -0.38110
N3822       N  0.34667805  0.28251546  0.14335274    -0.38120
C3823       C  0.71735176  0.58542413  0.96810023    -0.04780
C3824       C  0.70361531  0.57315750  0.94248366    -0.01900
C3825       C  0.70579236  0.58836212  0.91526540     0.03090
C3826       C  0.72643277  0.61204527  0.91296080    -0.04780
C3827       C  0.73850895  0.62379279  0.93939383    -0.01890
C3828       C  0.72710998  0.61477299  0.96647936     0.03090
C3829       C  0.68948374  0.54449538  0.94333474     0.37740
C3830       C  0.76909557  0.63400024  0.93954272     0.37730
C3831       C  0.73368755  0.63177390  0.99298864     0.36150
C3832       C  0.68917676  0.57816192  0.88968123     0.36150
N3833       N  0.73907148  0.64552216  0.01395830    -0.38670
N3834       N  0.67577069  0.57001523  0.86933385    -0.38670
N3835       N  0.79436641  0.63923825  0.93935193    -0.38110
N3836       N  0.67838322  0.52148677  0.94485037    -0.38120
C3837       C  0.71971673  0.49347770  0.02869965    -0.04780
C3838       C  0.73537220  0.46766249  0.02071801    -0.01900
C3839       C  0.71968300  0.44094431  0.01611643     0.03090
C3840       C  0.68769913  0.44027838  0.01621134    -0.04780
C3841       C  0.67297373  0.46648990  0.02606855    -0.01890
C3842       C  0.68925454  0.49132728  0.03541647     0.03090
C3843       C  0.76752147  0.46842852  0.01570196     0.37740
C3844       C  0.64129736  0.47063879  0.02327488     0.37730
C3845       C  0.67423341  0.51596686  0.04982984     0.36150
C3846       C  0.73741586  0.41534882  0.00906658     0.36150
N3847       N  0.66234523  0.53558085  0.06130722    -0.38670
N3848       N  0.75264240  0.39618727  0.00160485    -0.38670
N3849       N  0.61595716  0.47476661  0.02162787    -0.38110
N3850       N  0.79313991  0.46822513  0.01182833    -0.38120
C3851       C  0.80630066  0.56230531  0.02962484    -0.04780
C3852       C  0.81101660  0.58184337  0.05348064    -0.01900
C3853       C  0.83749026  0.57983386  0.06997131     0.03090
C3854       C  0.85797838  0.55717954  0.06340259    -0.04780
C3855       C  0.85507441  0.54064086  0.03684425    -0.01890
C3856       C  0.82966330  0.54435652  0.01924248     0.03090
C3857       C  0.78742961  0.60170998  0.06282441     0.37740
C3858       C  0.87537189  0.51659172  0.02994554     0.37730
C3859       C  0.82620081  0.52770251  0.99194318     0.36150
C3860       C  0.84207212  0.59855587  0.09568753     0.36150
N3861       N  0.82364668  0.51456344  0.97006529    -0.38670
N3862       N  0.84573499  0.61347183  0.11622664    -0.38670
N3863       N  0.89123403  0.49716908  0.02452321    -0.38110
N3864       N  0.76854041  0.61743209  0.07043154    -0.38120
C3865       C  0.96526923  0.54503957  0.26449704    -0.04780
C3866       C  0.94293029  0.53712155  0.28500083    -0.01900
C3867       C  0.91641926  0.55378003  0.28649883     0.03090
C3868       C  0.91359903  0.57900628  0.26870288    -0.04780
C3869       C  0.93400718  0.58355386  0.24510232    -0.01890
C3870       C  0.96038187  0.56757471  0.24389210     0.03090
C3871       C  0.94723190  0.51207204  0.30419417     0.37740
C3872       C  0.92709191  0.60266533  0.22040778     0.37730
C3873       C  0.98266662  0.57451574  0.22133421     0.36150
C3874       C  0.89096013  0.54302264  0.30312975     0.36150
N3875       N  0.00034274  0.58005985  0.20341985    -0.38670
N3876       N  0.87016497  0.53357674  0.31515832    -0.38670
N3877       N  0.92224220  0.61708874  0.19996958    -0.38110
N3878       N  0.95067682  0.49207750  0.31954709    -0.38120
C3879       C  0.07220839  0.53918515  0.28020173    -0.04780
C3880       C  0.07849342  0.51177182  0.29316811    -0.01900
C3881       C  0.10359445  0.50884490  0.31079411     0.03090
C3882       C  0.12025052  0.53419128  0.31892973    -0.04780
C3883       C  0.11318019  0.56199335  0.30722192    -0.01890
C3884       C  0.08932672  0.56438803  0.28709976     0.03090
C3885       C  0.05800497  0.48686391  0.28999184     0.37740
C3886       C  0.12993943  0.58786416  0.31630230     0.37730
C3887       C  0.08153984  0.59261458  0.27452833     0.36150
C3888       C  0.11130598  0.47966995  0.32151970     0.36150
N3889       N  0.07516617  0.61512351  0.26450552    -0.38670
N3890       N  0.11703932  0.45623576  0.32965055    -0.38670
N3891       N  0.14324761  0.60858565  0.32357611    -0.38110
N3892       N  0.04167762  0.46710859  0.28776128    -0.38120
C3893       C  0.02799395  0.43875266  0.15920258    -0.04780
C3894       C  0.00350361  0.45797299  0.16039814    -0.01900
C3895       C  0.00449442  0.48269991  0.17890509     0.03090
C3896       C  0.02782164  0.48551643  0.19996015    -0.04780
C3897       C  0.05229967  0.46547429  0.19897317    -0.01890
C3898       C  0.05280294  0.44291232  0.17762348     0.03090
C3899       C  0.97618363  0.45027948  0.14480795     0.37740
C3900       C  0.07648538  0.46657647  0.22028205     0.37730
C3901       C  0.07823870  0.42316232  0.17526428     0.36150
C3902       C  0.98137301  0.50490996  0.17605276     0.36150
N3903       N  0.09852981  0.40750276  0.17318391    -0.38670
N3904       N  0.96274746  0.52235863  0.17349534    -0.38670
N3905       N  0.09637297  0.46684670  0.23662337    -0.38110
N3906       N  0.95468480  0.44243783  0.13288836    -0.38120
C3907       C  0.50027603  0.16596968  0.03932540    -0.04780
C3908       C  0.50279056  0.13574163  0.03320339    -0.01900
C3909       C  0.47868749  0.12279249  0.01844603     0.03090
C3910       C  0.44954844  0.13372775  0.02397027    -0.04780
C3911       C  0.44660053  0.15718428  0.04435127    -0.01890
C3912       C  0.47157424  0.17563898  0.04929184     0.03090
C3913       C  0.53141782  0.12089905  0.03500460     0.37740
C3914       C  0.41778843  0.16350876  0.05759046     0.37730
C3915       C  0.46652539  0.20445849  0.06210773     0.36150
C3916       C  0.48561829  0.10690216  0.99166232     0.36150
N3917       N  0.46223120  0.22758575  0.07214336    -0.38670
N3918       N  0.49211746  0.09615732  0.96937422    -0.38670
N3919       N  0.39453263  0.16771078  0.06801149    -0.38110
N3920       N  0.55428941  0.10911113  0.03640621    -0.38120
C3921       C  0.58048023  0.18497273  0.96231455    -0.04780
C3922       C  0.60939986  0.19700600  0.96531270    -0.01900
C3923       C  0.62454010  0.20499819  0.93967465     0.03090
C3924       C  0.61758074  0.19060136  0.91262470    -0.04780
C3925       C  0.59373010  0.16994460  0.91212816    -0.01890
C3926       C  0.57330905  0.16942001  0.93606492     0.03090
C3927       C  0.62046868  0.20683959  0.99394986     0.37740
C3928       C  0.58841762  0.15206196  0.88597987     0.37730
C3929       C  0.54431065  0.15556527  0.93243639     0.36150
C3930       C  0.63946078  0.23344623  0.94011514     0.36150
N3931       N  0.52105383  0.14467551  0.92941030    -0.38670
N3932       N  0.64949803  0.25698043  0.94021320    -0.38670
N3933       N  0.58441423  0.13770418  0.86511656    -0.38110
N3934       N  0.62919929  0.21479715  0.01672072    -0.38120
C3935       C  0.53625446  0.31740833  0.06014570    -0.04780
C3936       C  0.54460076  0.29062632  0.07405511    -0.01900
C3937       C  0.55657826  0.26758818  0.05762958     0.03090
C3938       C  0.54836515  0.26515382  0.02800462    -0.04780
C3939       C  0.53933120  0.29051495  0.01277101    -0.01890
C3940       C  0.53610935  0.31743975  0.02840479     0.03090
C3941       C  0.53354949  0.28257470  0.10285097     0.37740
C3942       C  0.53198604  0.28868408  0.98155928     0.37730
C3943       C  0.53086823  0.34355959  0.01104189     0.36150
C3944       C  0.57240535  0.24382074  0.07222329     0.36150
N3945       N  0.52575349  0.36340709  0.99596564    -0.38670
N3946       N  0.58502130  0.22489404  0.08375464    -0.38670
N3947       N  0.52603568  0.28732800  0.95669433    -0.38110
N3948       N  0.52427857  0.27504367  0.12537773    -0.38120
C3949       C  0.54030832  0.93414736  0.74869364    -0.04780
C3950       C  0.55956030  0.92596721  0.72559798    -0.01900
C3951       C  0.58528032  0.90997224  0.73204546     0.03090
C3952       C  0.59206307  0.90322309  0.76191193    -0.04780
C3953       C  0.57135094  0.90922670  0.78458928    -0.01890
C3954       C  0.54495012  0.92425957  0.77779690     0.03090
C3955       C  0.55367374  0.93564372  0.69559793     0.37740
C3956       C  0.57772596  0.90088863  0.81480823     0.37730
C3957       C  0.52332131  0.93103710  0.80086604     0.36150
C3958       C  0.60474707  0.90084537  0.70786809     0.36150
N3959       N  0.50604319  0.93650965  0.81920907    -0.38670
N3960       N  0.61998080  0.89370242  0.68835935    -0.38670
N3961       N  0.58285652  0.89431624  0.83894226    -0.38110
N3962       N  0.54893397  0.94366474  0.67183623    -0.38120
C3963       C  0.44811906  0.97726974  0.71375674    -0.04780
C3964       C  0.45138469  0.99116457  0.68609451    -0.01900
C3965       C  0.43271353  0.98322799  0.66271086     0.03090
C3966       C  0.41576551  0.95674633  0.66414208    -0.04780
C3967       C  0.41236812  0.94267812  0.69178333    -0.01890
C3968       C  0.42687061  0.95432363  0.71695532     0.03090
C3969       C  0.47692418  0.00996572  0.67955173     0.37740
C3970       C  0.39458116  0.91600063  0.69429505     0.37730
C3971       C  0.42164416  0.94144072  0.74579935     0.36150
C3972       C  0.43072665  0.00330254  0.63788393     0.36150
N3973       N  0.41747986  0.93123755  0.76884359    -0.38670
N3974       N  0.42934207  0.02003400  0.61873098    -0.38670
N3975       N  0.38036175  0.89473425  0.69633729    -0.38110
N3976       N  0.49772818  0.02387038  0.67325547    -0.38120
C3977       C  0.55048160  0.08977919  0.79074783    -0.04780
C3978       C  0.53404054  0.09239767  0.76443591    -0.01900
C3979       C  0.52168176  0.06719084  0.75091300     0.03090
C3980       C  0.52869379  0.03909372  0.76227096    -0.04780
C3981       C  0.55135810  0.03735619  0.78444998    -0.01890
C3982       C  0.56527928  0.06308326  0.79506615     0.03090
C3983       C  0.53181280  0.12046777  0.75005981     0.37740
C3984       C  0.55736558  0.00999790  0.79945058     0.37730
C3985       C  0.58946106  0.06182335  0.81637658     0.36150
C3986       C  0.50122332  0.07108956  0.72647917     0.36150
N3987       N  0.60868423  0.06090715  0.83343290    -0.38670
N3988       N  0.48448617  0.07574377  0.70761762    -0.38670
N3989       N  0.56123867  0.98753987  0.81061462    -0.38110
N3990       N  0.53057943  0.14229236  0.73721042    -0.38120
C3991       C  0.79321973  0.67530412  0.68954337    -0.04780
C3992       C  0.81110223  0.67197588  0.71487076    -0.01900
C3993       C  0.83777637  0.65630427  0.71296654     0.03090
C3994       C  0.84756551  0.64486740  0.68527527    -0.04780
C3995       C  0.82996279  0.64864571  0.65982071    -0.01890
C3996       C  0.80259219  0.66386231  0.66203028     0.03090
C3997       C  0.80271221  0.68580834  0.74288125     0.37740
C3998       C  0.84004924  0.63696669  0.63161641     0.37730
C3999       C  0.78393744  0.66771653  0.63630635     0.36150
C4000       C  0.85453701  0.65175592  0.74005959     0.36150
N4001       N  0.76866075  0.67067469  0.61597540    -0.38670
N4002       N  0.86701576  0.64864496  0.76220863    -0.38670
N4003       N  0.84814369  0.62770414  0.60907374    -0.38110
N4004       N  0.79628107  0.69688157  0.76513838    -0.38120
C4005       C  0.76366506  0.77715749  0.69860133    -0.04780
C4006       C  0.74209435  0.79301116  0.68267343    -0.01900
C4007       C  0.74909509  0.82103722  0.67214248     0.03090
C4008       C  0.77913751  0.83086802  0.67285430    -0.04780
C4009       C  0.80018481  0.81639625  0.69052873    -0.01890
C4010       C  0.79203227  0.78985696  0.70445255     0.03090
C4011       C  0.71509584  0.77864438  0.67202435     0.37740
C4012       C  0.83034090  0.82800378  0.69292632     0.37730
C4013       C  0.81337515  0.77458814  0.72286515     0.36150
C4014       C  0.72634108  0.83788626  0.65680325     0.36150
N4015       N  0.83041801  0.76250619  0.73765506    -0.38670
N4016       N  0.70815010  0.85119153  0.64462487    -0.38670
N4017       N  0.85438217  0.83740032  0.69486084    -0.38110
N4018       N  0.69423824  0.76732725  0.66189384    -0.38120
C4019       C  0.70394381  0.69875683  0.74862455    -0.04780
C4020       C  0.67988028  0.71832525  0.75281128    -0.01900
C4021       C  0.66774247  0.72169264  0.78090974     0.03090
C4022       C  0.67067189  0.69893712  0.80178048    -0.04780
C4023       C  0.68968569  0.67509296  0.79539089    -0.01890
C4024       C  0.70820886  0.67609525  0.76991759     0.03090
C4025       C  0.66908763  0.73703924  0.72933375     0.37740
C4026       C  0.69141083  0.65077751  0.81586227     0.37730
C4027       C  0.73228329  0.65497048  0.76718713     0.36150
C4028       C  0.65908476  0.75117856  0.78997234     0.36150
N4029       N  0.75135496  0.63785264  0.76538720    -0.38670
N4030       N  0.65448777  0.77524077  0.79721488    -0.38670
N4031       N  0.69223991  0.63119441  0.83206652    -0.38110
N4032       N  0.65934376  0.75217733  0.71134077    -0.38120
loop_ 
_geom_bond_atom_site_label_1 
_geom_bond_atom_site_label_2 
_geom_bond_distance 
_geom_bond_site_symmetry_2 
_ccdc_geom_bond_type 
C1            C2   1.400       .  A
C1            C6   1.424       .  A
C1           C46   1.479       .  S
C2            C3   1.388       .  A
C2            H7   1.087       .  S
C3            C4   1.388       .  A
C3         C4022   1.480       .  S
C4            C5   1.411       .  A
C4            H8   1.084       .  S
C5            C6   1.423       .  A
C5          C857   1.498       .  S
C6            H9   1.083       .  S
C10          C11   1.403       .  A
C10          C15   1.391       .  A
C10        C3991   1.463       .  S
C11          C12   1.404       .  A
C11          H16   1.081       .  S
C12          C13   1.412       .  A
C12        C4019   1.495       .  S
C13          C14   1.393       .  A
C13          H17   1.084       .  S
C14          C15   1.388       .  A
C14        C4005   1.470       .  S
C15          H18   1.085       .  S
C19          C20   1.396       .  A
C19          C24   1.429       .  A
C19         C966   1.467       .  S
C20          C21   1.375       .  A
C20          H25   1.086       .  S
C21          C22   1.390       .  A
C21        C4008   1.470       .  S
C22          C23   1.413       .  A
C22          H26   1.084       .  S
C23          C24   1.426       .  A
C23         C461   1.512       .  S
C24          H27   1.082       .  S
C28          C29   1.398       .  A
C28          C33   1.428       .  A
C28         C282   1.480       .  S
C29          C30   1.378       .  A
C29          H34   1.088       .  S
C30          C31   1.384       .  A
C30        C3994   1.473       .  S
C31          C32   1.411       .  A
C31          H35   1.084       .  S
C32          C33   1.432       .  A
C32        C1025   1.499       .  S
C33          H36   1.082       .  S
O37         Mg39   2.178       .  S
O37         Mg45   2.183       .  S
O37          C72   1.231       .  S
C38          H77   1.081       .  S
C38          O51   1.235       .  S
C38          O75   1.270       .  A
Mg39         O68   2.128       .  S
Mg39         O83   2.332       .  S
Mg39         O79   2.336       .  S
Mg39         O50   2.326       .  S
O40         Mg82   2.177       .  S
O40         Mg65   2.155       .  S
O40          C61   1.240       .  S
O41          C72   1.266       .  A
O41         Mg65   2.291       .  S
C42         C114   1.463       .  S
C42          O44   1.269       .  A
C42          O56   1.270       .  A
O43          C71   1.269       .  A
O43         Mg45   2.304       .  S
O44         Mg76   2.275       .  S
Mg45         O51   2.194       .  S
Mg45         O59   2.317       .  S
Mg45         O47   2.335       .  S
C46          O84   1.268       .  A
C46          O52   1.271       .  A
O47          C54   1.277       .  A
H48          C61   1.081       .  S
C49          H74   1.081       .  S
C49          O63   1.240       .  S
C49          O64   1.276       .  A
O50          C73   1.278       .  A
O51         Mg65   2.221       .  S
O52         Mg82   2.316       .  S
C53        C1304   1.488       .  S
C53          O66   1.272       .  A
C53          O58   1.276       .  A
C54        C1366   1.470       .  S
C54          O81   1.270       .  A
Mg55         O62   2.147       .  S
Mg55         O63   2.134       .  S
Mg55         O56   2.327       .  S
Mg55         O57   2.317       .  S
Mg55         O84   2.288       .  S
O57          C61   1.276       .  A
O58         Mg65   2.360       .  S
O59          C78   1.278       .  A
O60          C80   1.271       .  A
O60         Mg76   2.309       .  S
O62         Mg76   2.128       .  S
O62          C73   1.242       .  S
O63         Mg82   2.131       .  S
O64         Mg76   2.317       .  S
Mg65         O81   2.232       .  S
O66         Mg82   2.265       .  S
H67          C72   1.081       .  S
O68         Mg76   2.138       .  S
O68          C71   1.234       .  S
H69          C71   1.081       .  S
H70          C73   1.081       .  S
O75         Mg82   2.297       .  S
C78         C427   1.480       .  S
C78          O83   1.279       .  A
O79          C80   1.278       .  A
C80        C2137   1.476       .  S
C85          C86   1.404       .  A
C85          C90   1.425       .  A
C85         C836   1.511       .  S
C86          C87   1.404       .  A
C86          H91   1.079       .  S
C87          C88   1.386       .  A
C87        C3977   1.496       .  S
C88          C89   1.397       .  A
C88          H92   1.082       .  S
C89          C90   1.427       .  A
C89        C1736   1.476       .  S
C90          H93   1.082       .  S
C94          C95   1.415   1_565  A
C94          C99   1.395       .  A
C94        C3963   1.475       .  S
C95          C96   1.414       .  A
C95         H100   1.081       .  S
C96          C97   1.394   1_545  A
C96        C3980   1.496       .  S
C97          C98   1.384       .  A
C97         H101   1.084       .  S
C98          C99   1.377       .  A
C98        C3949   1.449       .  S
C99         H102   1.084       .  S
C103        C104   1.390       .  A
C103        C108   1.424       .  A
C103        C162   1.461       .  S
C104        C105   1.376       .  A
C104        H109   1.087       .  S
C105        C106   1.394       .  A
C105       C3966   1.488       .  S
C106        C107   1.418       .  A
C106        H110   1.083       .  S
C107        C108   1.424       .  A
C107        C762   1.504       .  S
C108        H111   1.083       .  S
C112        C113   1.422       .  A
C112        C117   1.405       .  A
C112        C968   1.484       .  S
C113        C114   1.425       .  A
C113        H118   1.083       .  S
C114        C115   1.393       .  A
C115        C116   1.375       .  A
C115        H119   1.088       .  S
C116        C117   1.384       .  A
C116       C3952   1.462       .  S
C117        H120   1.085       .  S
C121        C122   1.397       .  A
C121        C126   1.418       .  A
C121        C545   1.490       .  S
C122        C123   1.410       .  A
C122        H127   1.081       .  S
C123        C124   1.404       .  A
C123       C3935   1.516       .  S
C124        C125   1.399       .  A
C124        H128   1.073       .  S
C125        C126   1.418       .  A
C125       C1350   1.484       .  S
C126        H129   1.080       .  S
C130        C131   1.400       .  A
C130        C135   1.396       .  A
C130       C3921   1.484       .  S
C131        C132   1.383   1_556  A
C131        H136   1.084       .  S
C132        C133   1.401       .  A
C132       C3938   1.474       .  S
C133        C134   1.396       .  A
C133        H137   1.075       .  S
C134        C135   1.420   1_554  A
C134       C3907   1.506       .  S
C135        H138   1.077       .  S
C139        C140   1.403       .  A
C139        C144   1.424       .  A
C139       C1734   1.493       .  S
C140        C141   1.390       .  A
C140        H145   1.082       .  S
C141        C142   1.393       .  A
C141       C3924   1.486       .  S
C142        C143   1.403       .  A
C142        H146   1.085       .  S
C143        C144   1.422       .  A
C143        C620   1.487       .  S
C144        H147   1.083       .  S
C148        C149   1.396       .  A
C148        C153   1.426       .  A
C148        C834   1.482       .  S
C149        C150   1.388   1_556  A
C149        H154   1.085   1_556  S
C150        C151   1.400   1_554  A
C150       C3910   1.490       .  S
C151        C152   1.405       .  A
C151        H155   1.082       .  S
C152        C153   1.428       .  A
C152       C2514   1.507       .  S
C153        H156   1.081       .  S
O157       Mg159   2.155       .  S
O157       Mg165   2.141       .  S
O157        C192   1.241   1_545  S
C158        H197   1.081       .  S
C158        O171   1.238       .  S
C158        O195   1.275   1_545  A
Mg159       O188   2.149       .  S
Mg159       O203   2.327       .  S
Mg159       O199   2.276       .  S
Mg159       O170   2.318   1_545  S
O160       Mg202   2.147       .  S
O160       Mg185   2.167       .  S
O160        C181   1.239       .  S
O161        C192   1.277       .  A
O161       Mg185   2.324       .  S
C162        O164   1.272   1_565  A
C162        O176   1.274       .  A
O163        C191   1.275       .  A
O163       Mg165   2.319       .  S
O164       Mg196   2.271       .  S
Mg165       O171   2.147       .  S
Mg165       O179   2.277       .  S
Mg165       O167   2.333       .  S
C166       C1795   1.490       .  S
C166        O204   1.275       .  A
C166        O172   1.280       .  A
O167        C174   1.274       .  A
H168        C181   1.081       .  S
C169        H194   1.081       .  S
C169        O183   1.240       .  S
C169        O184   1.276   1_565  A
O170        C193   1.274       .  A
O171       Mg185   2.132   1_545  S
O172       Mg202   2.351       .  S
C173        C409   1.472       .  S
C173        O186   1.273       .  A
C173        O178   1.272       .  A
C174        C973   1.475       .  S
C174        O201   1.271   1_545  A
Mg175       O182   2.181       .  S
Mg175       O183   2.143       .  S
Mg175       O176   2.319       .  S
Mg175       O177   2.317       .  S
Mg175       O204   2.313       .  S
O177        C181   1.275       .  A
O178       Mg185   2.325       .  S
O179        C198   1.271       .  A
O180        C200   1.281       .  A
O180       Mg196   2.370       .  S
O182       Mg196   2.157   1_565  S
O182        C193   1.238       .  S
O183       Mg202   2.159       .  S
O184       Mg196   2.325       .  S
Mg185       O201   2.290       .  S
O186       Mg202   2.296       .  S
H187        C192   1.081       .  S
O188       Mg196   2.152       .  S
O188        C191   1.239       .  S
H189        C191   1.081       .  S
H190        C193   1.081       .  S
O195       Mg202   2.321       .  S
C198       C2632   1.469       .  S
C198        O203   1.274       .  A
O199        C200   1.270       .  A
C200       C2464   1.482       .  S
C205        C206   1.397       .  A
C205        C210   1.430       .  A
C205       C1906   1.484       .  S
C206        C207   1.378       .  A
C206        H211   1.087       .  S
C207        C208   1.378       .  A
C207       C3893   1.457       .  S
C208        C209   1.393       .  A
C208        H212   1.087       .  S
C209        C210   1.433       .  A
C209       C1182   1.476       .  S
C210        H213   1.082       .  S
C214        C215   1.414       .  A
C214        C219   1.442       .  A
C214       C1268   1.525       .  S
C215        C216   1.382       .  A
C215        H220   1.084       .  S
C216        C217   1.374       .  A
C216       C3882   1.463       .  S
C217        C218   1.396       .  A
C217        H221   1.087       .  S
C218        C219   1.443       .  A
C218       C1518   1.489       .  S
C219        H222   1.081       .  S
C223        C224   1.400       .  A
C223        C228   1.404   1_455  A
C223       C3896   1.483       .  S
C224        C225   1.398       .  A
C224        H229   1.082       .  S
C225        C226   1.390       .  A
C225       C3879   1.454       .  S
C226        C227   1.390   1_455  A
C226        H230   1.084       .  S
C227        C228   1.393       .  A
C227       C3865   1.454       .  S
C228        H231   1.083       .  S
C232        C233   1.391       .  A
C232        C237   1.433       .  A
C232       C1618   1.473       .  S
C233        C234   1.374       .  A
C233        H238   1.087       .  S
C234        C235   1.395       .  A
C234       C3868   1.474       .  S
C235        C236   1.414       .  A
C235        H239   1.084       .  S
C236        C237   1.434       .  A
C236       C1566   1.517       .  S
C237        H240   1.082       .  S
O241       Mg243   2.172       .  S
O241       Mg249   2.161       .  S
O241        C276   1.239       .  S
C242        H281   1.081       .  S
C242        O255   1.236       .  S
C242        O279   1.269       .  A
Mg243       O272   2.171       .  S
Mg243       O287   2.385       .  S
Mg243       O283   2.343       .  S
Mg243       O254   2.319       .  S
O244       Mg286   2.174       .  S
O244       Mg269   2.118       .  S
O244        C265   1.234       .  S
O245        C276   1.273       .  A
O245       Mg269   2.306       .  S
C246       C1357   1.507       .  S
C246        O248   1.276       .  A
C246        O260   1.272       .  A
O247        C275   1.272       .  A
O247       Mg249   2.303       .  S
O248       Mg280   2.379       .  S
Mg249       O255   2.127       .  S
Mg249       O263   2.248       .  S
Mg249       O251   2.291       .  S
C250       C1770   1.482       .  S
C250        O288   1.276       .  A
C250        O256   1.282       .  A
O251        C258   1.277       .  A
H252        C265   1.081       .  S
C253        H278   1.081       .  S
C253        O267   1.239       .  S
C253        O268   1.275       .  A
O254        C277   1.273       .  A
O255       Mg269   2.180       .  S
O256       Mg286   2.349       .  S
C257       C1824   1.502       .  S
C257        O270   1.282       .  A
C257        O262   1.270       .  A
C258       C1216   1.497       .  S
C258        O285   1.269       .  A
Mg259       O266   2.179       .  S
Mg259       O267   2.164       .  S
Mg259       O260   2.248       .  S
Mg259       O261   2.287       .  S
Mg259       O288   2.299       .  S
O261        C265   1.267       .  A
O262       Mg269   2.229       .  S
O263        C282   1.271       .  A
O264        C284   1.284       .  A
O264       Mg280   2.323       .  S
O266       Mg280   2.196       .  S
O266        C277   1.237       .  S
O267       Mg286   2.193       .  S
O268       Mg280   2.321       .  S
Mg269       O285   2.321       .  S
O270       Mg286   2.388       .  S
H271        C276   1.081       .  S
O272       Mg280   2.162       .  S
O272        C275   1.237       .  S
H273        C275   1.081       .  S
H274        C277   1.081       .  S
O279       Mg286   2.293       .  S
C282        O287   1.285       .  A
O283        C284   1.280       .  A
C284        C318   1.507       .  S
C289        C290   1.408       .  A
C289        C294   1.426       .  A
C289       C1184   1.499       .  S
C290        C291   1.380       .  A
C290        H295   1.075       .  S
C291        C292   1.381       .  A
C291       C3854   1.472       .  S
C292        C293   1.391       .  A
C292        H296   1.087       .  S
C293        C294   1.424       .  A
C293       C1614   1.470       .  S
C294        H297   1.078       .  S
C298        C299   1.410       .  A
C298        C303   1.400   1_556  A
C298       C3823   1.498       .  S
C299        C300   1.386   1_556  A
C299        H304   1.083       .  S
C300        C301   1.395       .  A
C300       C3851   1.466       .  S
C301        C302   1.395       .  A
C301        H305   1.084       .  S
C302        C303   1.409       .  A
C302       C3837   1.487       .  S
C303        H306   1.077   1_554  S
C307        C308   1.404       .  A
C307        C312   1.418       .  A
C307        C618   1.499       .  S
C308        C309   1.412   1_556  A
C308        H313   1.075       .  S
C309        C310   1.409       .  A
C309       C3840   1.529       .  S
C310        C311   1.399   1_554  A
C310        H314   1.078       .  S
C311        C312   1.422       .  A
C311       C1352   1.490       .  S
C312        H315   1.082       .  S
C316        C317   1.426       .  A
C316        C321   1.397       .  A
C316        C858   1.494       .  S
C317        C318   1.431       .  A
C317        H322   1.082       .  S
C318        C319   1.411       .  A
C319        C320   1.396       .  A
C319        H323   1.081       .  S
C320        C321   1.396       .  A
C320       C3826   1.496       .  S
C321        H324   1.085       .  S
C325        C326   1.427       .  A
C325        C330   1.410       .  A
C325        C546   1.499       .  S
C326        C327   1.423       .  A
C326        H331   1.082       .  S
C327        C328   1.388       .  A
C327       C2518   1.469       .  S
C328        C329   1.377       .  A
C328        H332   1.088       .  S
C329        C330   1.389       .  A
C329       C3809   1.462       .  S
C330        H333   1.084       .  S
C334        C335   1.383       .  A
C334        C339   1.390       .  A
C334       C3784   1.459       .  S
C335        C336   1.387       .  A
C335        H340   1.086       .  S
C336        C337   1.405       .  A
C336       C3812   1.465       .  S
C337        C338   1.409       .  A
C337        H341   1.079       .  S
C338        C339   1.411       .  A
C338       C3795   1.499       .  S
C339        H342   1.083       .  S
C343        C344   1.421       .  A
C343        C348   1.413       .  A
C343       C1522   1.497       .  S
C344        C345   1.422       .  A
C344        H349   1.083       .  S
C345        C346   1.398       .  A
C345       C1902   1.475       .  S
C346        C347   1.388       .  A
C346        H350   1.087       .  S
C347        C348   1.388       .  A
C347       C3798   1.481       .  S
C348        H351   1.084       .  S
C352        C353   1.390       .  A
C352        C357   1.430       .  A
C352       C2398   1.472       .  S
C353        C354   1.374       .  A
C353        H358   1.087       .  S
C354        C355   1.388       .  A
C354       C3781   1.454       .  S
C355        C356   1.400       .  A
C355        H359   1.086       .  S
C356        C357   1.428       .  A
C356       C2264   1.493       .  S
C357        H360   1.082       .  S
O361       Mg363   2.131       .  S
O361       Mg369   2.191       .  S
O361        C396   1.237       .  S
C362        H401   1.081       .  S
C362        O375   1.239       .  S
C362        O399   1.277       .  A
Mg363       O392   2.161       .  S
Mg363       O407   2.275       .  S
Mg363       O403   2.277       .  S
Mg363       O374   2.315       .  S
O364       Mg406   2.142       .  S
O364       Mg389   2.190       .  S
O364        C385   1.239       .  S
O365        C396   1.271       .  A
O365       Mg389   2.305       .  S
C366       C1477   1.499       .  S
C366        O368   1.274       .  A
C366        O380   1.276       .  A
O367        C395   1.269       .  A
O367       Mg369   2.288       .  S
O368       Mg400   2.345       .  S
Mg369       O375   2.157       .  S
Mg369       O383   2.351       .  S
Mg369       O371   2.272       .  S
C370       C1393   1.499       .  S
C370        O408   1.273       .  A
C370        O376   1.278       .  A
O371        C378   1.274       .  A
H372        C385   1.081       .  S
C373        H398   1.081       .  S
C373        O387   1.239       .  S
C373        O388   1.278       .  A
O374        C397   1.274       .  A
O375       Mg389   2.140       .  S
O376       Mg406   2.351       .  S
C377       C2166   1.480       .  S
C377        O390   1.272       .  A
C377        O382   1.272       .  A
C378        C429   1.498       .  S
C378        O405   1.275       .  A
Mg379       O386   2.179       .  S
Mg379       O387   2.142       .  S
Mg379       O380   2.284       .  S
Mg379       O381   2.333       .  S
Mg379       O408   2.351       .  S
O381        C385   1.277       .  A
O382       Mg389   2.302       .  S
O383        C402   1.273       .  A
O384        C404   1.284       .  A
O384       Mg400   2.380       .  S
O386       Mg400   2.163       .  S
O386        C397   1.238       .  S
O387       Mg406   2.192       .  S
O388       Mg400   2.343       .  S
Mg389       O405   2.354       .  S
O390       Mg406   2.337       .  S
H391        C396   1.081       .  S
O392       Mg400   2.154       .  S
O392        C395   1.237       .  S
H393        C395   1.079       .  S
H394        C397   1.081       .  S
O399       Mg406   2.331       .  S
C402       C1797   1.502       .  S
C402        O407   1.276       .  A
O403        C404   1.272       .  A
C404        C625   1.487       .  S
C409        C410   1.400       .  A
C409        C414   1.426       .  A
C410        C411   1.383       .  A
C410        H415   1.087       .  S
C411        C412   1.383       .  A
C411       C3767   1.480       .  S
C412        C413   1.414       .  A
C412        H416   1.084       .  S
C413        C414   1.423       .  A
C413       C1052   1.497       .  S
C414        H417   1.083       .  S
C418        C419   1.408       .  A
C418        C423   1.404       .  A
C418       C3739   1.505       .  S
C419        C420   1.396       .  A
C419        H424   1.082       .  S
C420        C421   1.397       .  A
C420       C3770   1.470       .  S
C421        C422   1.396       .  A
C421        H425   1.083       .  S
C422        C423   1.408       .  A
C422       C3756   1.484       .  S
C423        H426   1.078       .  S
C427        C428   1.424       .  A
C427        C432   1.401       .  A
C428        C429   1.424       .  A
C428        H433   1.083       .  S
C429        C430   1.407       .  A
C430        C431   1.389       .  A
C430        H434   1.084       .  S
C431        C432   1.391       .  A
C431       C3753   1.482       .  S
C432        H435   1.085       .  S
C436        C437   1.407       .  A
C436        C441   1.419       .  A
C436       C2573   1.490       .  S
C437        C438   1.388       .  A
C437        H442   1.086       .  S
C438        C439   1.383       .  A
C438       C3742   1.473       .  S
C439        C440   1.399       .  A
C439        H443   1.086       .  S
C440        C441   1.424       .  A
C440       C1470   1.468       .  S
C441        H444   1.082       .  S
O445       Mg447   2.146       .  S
O445       Mg453   2.193       .  S
O445        C480   1.234       .  S
C446        H485   1.081       .  S
C446        O459   1.239       .  S
C446        O483   1.272       .  A
Mg447       O476   2.151       .  S
Mg447       O491   2.223       .  S
Mg447       O487   2.310       .  S
Mg447       O458   2.313       .  S
O448       Mg490   2.173       .  S
O448       Mg473   2.135       .  S
O448        C469   1.237       .  S
O449        C480   1.270       .  A
O449       Mg473   2.302       .  S
C450       C2146   1.508       .  S
C450        O452   1.276       .  A
C450        O464   1.282       .  A
O451        C479   1.275       .  A
O451       Mg453   2.313       .  S
O452       Mg484   2.335       .  S
Mg453       O459   2.146       .  S
Mg453       O467   2.345       .  S
Mg453       O455   2.346       .  S
C454        C738   1.476       .  S
C454        O492   1.272       .  A
C454        O460   1.275       .  A
O455        C462   1.281       .  A
H456        C469   1.081       .  S
C457        H482   1.080       .  S
C457        O471   1.239       .  S
C457        O472   1.275       .  A
O458        C481   1.274       .  A
O459       Mg473   2.144       .  S
O460       Mg490   2.310       .  S
C461        O474   1.279       .  A
C461        O466   1.271       .  A
C462        C647   1.483       .  S
C462        O489   1.270       .  A
Mg463       O470   2.138       .  S
Mg463       O471   2.153       .  S
Mg463       O464   2.318       .  S
Mg463       O465   2.315       .  S
Mg463       O492   2.304       .  S
O465        C469   1.274       .  A
O466       Mg473   2.248       .  S
O467        C486   1.274       .  A
O468        C488   1.277       .  A
O468       Mg484   2.340       .  S
O470       Mg484   2.162       .  S
O470        C481   1.238       .  S
O471       Mg490   2.202       .  S
O472       Mg484   2.320       .  S
Mg473       O489   2.298       .  S
O474       Mg490   2.383       .  S
H475        C480   1.081       .  S
O476       Mg484   2.161       .  S
O476        C479   1.240       .  S
H477        C479   1.081       .  S
H478        C481   1.081       .  S
O483       Mg490   2.301       .  S
C486       C1815   1.492       .  S
C486        O491   1.268       .  A
O487        C488   1.272       .  A
C488       C1684   1.477       .  S
C493        C494   1.396       .  A
C493        C498   1.437       .  A
C493       C1914   1.479       .  S
C494        C495   1.376       .  A
C494        H499   1.088       .  S
C495        C496   1.378       .  A
C495       C3728   1.462       .  S
C496        C497   1.402       .  A
C496        H500   1.087       .  S
C497        C498   1.432       .  A
C497       C2384   1.497       .  S
C498        H501   1.081       .  S
C502        C503   1.407       .  A
C502        C507   1.401       .  A
C502       C3725   1.488       .  S
C503        C504   1.397       .  A
C503        H508   1.083       .  S
C504        C505   1.386       .  A
C504       C3697   1.460       .  S
C505        C506   1.387       .  A
C505        H509   1.082       .  S
C506        C507   1.398       .  A
C506       C3711   1.455       .  S
C507        H510   1.082       .  S
C511        C512   1.412       .  A
C511        C516   1.430       .  A
C511       C1652   1.511       .  S
C512        C513   1.391       .  A
C512        H517   1.084       .  S
C513        C514   1.377       .  A
C513       C3700   1.470       .  S
C514        C515   1.394       .  A
C514        H518   1.086       .  S
C515        C516   1.432       .  A
C515        C594   1.475       .  S
C516        H519   1.082       .  S
C520        C521   1.409       .  A
C520        C525   1.420       .  A
C520        C534   1.482       .  S
C521        C522   1.384       .  A
C521        H526   1.085       .  S
C522        C523   1.386       .  A
C522       C3714   1.477       .  S
C523        C524   1.400       .  A
C523        H527   1.086       .  S
C524        C525   1.417       .  A
C524       C1858   1.466       .  S
C525        H528   1.083       .  S
O529       Mg531   2.191       .  S
O529       Mg537   2.164       .  S
O529        C564   1.238       .  S
C530        H569   1.081       .  S
C530        O543   1.239       .  S
C530        O567   1.276       .  A
Mg531       O560   2.147       .  S
Mg531       O575   2.346       .  S
Mg531       O571   2.392       .  S
Mg531       O542   2.304       .  S
O532       Mg574   2.112       .  S
O532       Mg557   2.151       .  S
O532        C553   1.241       .  S
O533        C564   1.272       .  A
O533       Mg557   2.303       .  S
C534        O536   1.271       .  A
C534        O548   1.271       .  A
O535        C563   1.271       .  A
O535       Mg537   2.297       .  S
O536       Mg568   2.322       .  S
Mg537       O543   2.169       .  S
Mg537       O551   2.273       .  S
Mg537       O539   2.279       .  S
C538       C2112   1.483       .  S
C538        O576   1.271       .  A
C538        O544   1.273       .  A
O539        C546   1.274       .  A
H540        C553   1.078       .  S
C541        H566   1.081       .  S
C541        O555   1.239       .  S
C541        O556   1.276       .  A
O542        C565   1.271       .  A
O543       Mg557   2.173       .  S
O544       Mg574   2.325       .  S
C545        O558   1.275       .  A
C545        O550   1.280       .  A
C546        O573   1.272       .  A
Mg547       O554   2.158       .  S
Mg547       O555   2.158       .  S
Mg547       O548   2.229       .  S
Mg547       O549   2.308       .  S
Mg547       O576   2.342       .  S
O549        C553   1.274       .  A
O550       Mg557   2.367       .  S
O551        C570   1.273       .  A
O552        C572   1.282       .  A
O552       Mg568   2.311       .  S
O554       Mg568   2.189       .  S
O554        C565   1.236       .  S
O555       Mg574   2.176       .  S
O556       Mg568   2.320       .  S
Mg557       O573   2.328       .  S
O558       Mg574   2.307       .  S
H559        C564   1.078       .  S
O560       Mg568   2.116       .  S
O560        C563   1.237       .  S
H561        C563   1.081       .  S
H562        C565   1.081       .  S
O567       Mg574   2.326       .  S
C570       C2291   1.479       .  S
C570        O575   1.279       .  A
O571        C572   1.280       .  A
C572       C2083   1.519       .  S
O577       Mg579   2.205       .  S
O577       Mg585   2.140   1_556  S
O577        C612   1.241       .  S
C578        H617   1.081       .  S
C578        O591   1.236       .  S
C578        O615   1.269       .  A
Mg579       O608   2.183       .  S
Mg579       O623   2.413       .  S
Mg579       O619   2.350       .  S
Mg579       O590   2.331       .  S
O580       Mg622   2.152   1_556  S
O580       Mg605   2.163   1_556  S
O580        C601   1.242       .  S
O581        C612   1.281       .  A
O581       Mg605   2.360   1_556  S
C582       C1743   1.476       .  S
C582        O584   1.274       .  A
C582        O596   1.270       .  A
O583        C611   1.274   1_554  A
O583       Mg585   2.301       .  S
O584       Mg616   2.326       .  S
Mg585       O591   2.161       .  S
Mg585       O599   2.250   1_554  S
Mg585       O587   2.293       .  S
C586        C889   1.470       .  S
C586        O624   1.271       .  A
C586        O592   1.269       .  A
O587        C594   1.266       .  A
H588        C601   1.081       .  S
C589        H614   1.081   1_556  S
C589        O603   1.241       .  S
C589        O604   1.277       .  A
O590        C613   1.274       .  A
O591       Mg605   2.160       .  S
O592       Mg622   2.315   1_556  S
C593       C2056   1.494       .  S
C593        O606   1.268       .  A
C593        O598   1.286       .  A
C594        O621   1.273       .  A
Mg595       O602   2.158       .  S
Mg595       O603   2.115       .  S
Mg595       O596   2.325       .  S
Mg595       O597   2.331       .  S
Mg595       O624   2.293       .  S
O597        C601   1.278       .  A
O598       Mg605   2.424       .  S
O599        C618   1.272       .  A
O600        C620   1.272       .  A
O600       Mg616   2.319       .  S
O602       Mg616   2.135       .  S
O602        C613   1.236       .  S
O603       Mg622   2.147   1_556  S
O604       Mg616   2.324       .  S
Mg605       O621   2.344       .  S
O606       Mg622   2.216       .  S
H607        C612   1.081       .  S
O608       Mg616   2.192       .  S
O608        C611   1.242       .  S
H609        C611   1.080       .  S
H610        C613   1.081       .  S
O615       Mg622   2.294       .  S
C618        O623   1.283       .  A
O619        C620   1.278       .  A
C625        C626   1.394       .  A
C625        C630   1.425       .  A
C626        C627   1.387       .  A
C626        H631   1.086       .  S
C627        C628   1.393       .  A
C627       C3683   1.486       .  S
C628        C629   1.415       .  A
C628        H632   1.083       .  S
C629        C630   1.431       .  A
C629        C704   1.505       .  S
C630        H633   1.082       .  S
C634        C635   1.399       .  A
C634        C639   1.396       .  A
C634       C3669   1.483       .  S
C635        C636   1.417       .  A
C635        H640   1.074       .  S
C636        C637   1.405       .  A
C636       C3686   1.511       .  S
C637        C638   1.394       .  A
C637        H641   1.077       .  S
C638        C639   1.389       .  A
C638       C3655   1.464   1_455  S
C639        H642   1.084   1_455  S
C643        C644   1.397       .  A
C643        C648   1.431       .  A
C643       C1026   1.497       .  S
C644        C645   1.386       .  A
C644        H649   1.086       .  S
C645        C646   1.378       .  A
C645       C3658   1.460       .  S
C646        C647   1.396       .  A
C646        H650   1.086       .  S
C647        C648   1.433       .  A
C648        H651   1.083       .  S
C652        C653   1.424       .  A
C652        C657   1.409       .  A
C652       C1570   1.497       .  S
C653        C654   1.427       .  A
C653        H658   1.082       .  S
C654        C655   1.402       .  A
C654       C1266   1.482       .  S
C655        C656   1.389       .  A
C655        H659   1.086       .  S
C656        C657   1.389       .  A
C656       C3672   1.490       .  S
C657        H660   1.085       .  S
O661       Mg663   2.184   1_545  S
O661       Mg669   2.154       .  S
O661        C696   1.236       .  S
C662        H701   1.081   1_545  S
C662        O675   1.238       .  S
C662        O699   1.274   1_545  A
Mg663       O692   2.178       .  S
Mg663       O707   2.337       .  S
Mg663       O703   2.345       .  S
Mg663       O674   2.312       .  S
O664       Mg706   2.162       .  S
O664       Mg689   2.142       .  S
O664        C685   1.239       .  S
O665        C696   1.272       .  A
O665       Mg689   2.312   1_455  S
C666       C1002   1.479       .  S
C666        O668   1.275       .  A
C666        O680   1.278   1_455  A
O667        C695   1.275       .  A
O667       Mg669   2.326   1_565  S
O668       Mg700   2.309       .  S
Mg669       O675   2.165   1_455  S
Mg669       O683   2.306   1_545  S
Mg669       O671   2.323       .  S
C670        C711   1.503       .  S
C670        O708   1.277   1_545  A
C670        O676   1.275       .  A
O671        C678   1.281       .  A
H672        C685   1.081       .  S
C673        H698   1.081       .  S
C673        O687   1.236       .  S
C673        O688   1.271       .  A
O674        C697   1.273       .  A
O675       Mg689   2.179       .  S
O676       Mg706   2.256       .  S
C677       C1974   1.507       .  S
C677        O690   1.275       .  A
C677        O682   1.278       .  A
C678       C2305   1.506       .  S
C678        O705   1.274   1_455  A
Mg679       O686   2.186   1_655  S
Mg679       O687   2.177       .  S
Mg679       O680   2.339       .  S
Mg679       O681   2.303   1_665  S
Mg679       O708   2.366       .  S
O681        C685   1.273   1_455  A
O682       Mg689   2.283       .  S
O683        C702   1.273       .  A
O684        C704   1.277       .  A
O684       Mg700   2.297       .  S
O686       Mg700   2.157       .  S
O686        C697   1.238       .  S
O687       Mg706   2.142   1_565  S
O688       Mg700   2.306   1_655  S
Mg689       O705   2.330       .  S
O690       Mg706   2.352       .  S
H691        C696   1.081       .  S
O692       Mg700   2.175       .  S
O692        C695   1.237       .  S
H693        C695   1.081       .  S
H694        C697   1.081       .  S
O699       Mg706   2.315   1_565  S
C702       C1806   1.488       .  S
C702        O707   1.278       .  A
O703        C704   1.277       .  A
C709        C710   1.429       .  A
C709        C714   1.397       .  A
C709        C942   1.472       .  S
C710        C711   1.431       .  A
C710        H715   1.082   1_545  S
C711        C712   1.412       .  A
C712        C713   1.387       .  A
C712        H716   1.085       .  S
C713        C714   1.377       .  A
C713       C3641   1.476       .  S
C714        H717   1.087       .  S
C718        C719   1.399       .  A
C718        C723   1.394   1_545  A
C718       C3613   1.471       .  S
C719        C720   1.391       .  A
C719        H724   1.084       .  S
C720        C721   1.398       .  A
C720       C3644   1.460       .  S
C721        C722   1.393   1_545  A
C721        H725   1.085   1_545  S
C722        C723   1.395       .  A
C722       C3627   1.472       .  S
C723        H726   1.084       .  S
C727        C728   1.434       .  A
C727        C732   1.398       .  A
C727       C2382   1.481       .  S
C728        C729   1.429       .  A
C728        H733   1.082       .  S
C729        C730   1.407       .  A
C729       C1854   1.505       .  S
C730        C731   1.385       .  A
C730        H734   1.085       .  S
C731        C732   1.376       .  A
C731       C3616   1.466       .  S
C732        H735   1.082       .  S
C736        C737   1.417       .  A
C736        C741   1.394       .  A
C736        C788   1.475       .  S
C737        C738   1.418       .  A
C737        H742   1.063       .  S
C738        C739   1.395       .  A
C739        C740   1.387       .  A
C739        H743   1.086       .  S
C740        C741   1.391       .  A
C740       C3630   1.469       .  S
C741        H744   1.086       .  S
O745       Mg747   2.111       .  S
O745       Mg753   2.176       .  S
O745        C780   1.237       .  S
C746        H785   1.081       .  S
C746        O759   1.234       .  S
C746        O783   1.268       .  A
Mg747       O776   2.152       .  S
Mg747       O791   2.258       .  S
Mg747       O787   2.269       .  S
Mg747       O758   2.323       .  S
O748       Mg790   2.188       .  S
O748       Mg773   2.181       .  S
O748        C769   1.237       .  S
O749        C780   1.269       .  A
O749       Mg773   2.286   1_565  S
C750       C2271   1.476       .  S
C750        O752   1.268       .  A
C750        O764   1.264   1_565  A
O751        C779   1.272       .  A
O751       Mg753   2.303       .  S
O752       Mg784   2.343       .  S
Mg753       O759   2.146   1_565  S
Mg753       O767   2.351       .  S
Mg753       O755   2.245       .  S
C754       C2087   1.488       .  S
C754        O792   1.267       .  A
C754        O760   1.284       .  A
O755        C762   1.272       .  A
H756        C769   1.081   1_565  S
C757        H782   1.081       .  S
C757        O771   1.241       .  S
C757        O772   1.281       .  A
O758        C781   1.273       .  A
O759       Mg773   2.172       .  S
O760       Mg790   2.401       .  S
C761       C1777   1.494       .  S
C761        O774   1.281       .  A
C761        O766   1.279       .  A
C762        O789   1.281       .  A
Mg763       O770   2.165   1_545  S
Mg763       O771   2.135       .  S
Mg763       O764   2.269       .  S
Mg763       O765   2.306   1_545  S
Mg763       O792   2.250       .  S
O765        C769   1.272   1_565  A
O766       Mg773   2.278       .  S
O767        C786   1.273       .  A
O768        C788   1.277       .  A
O768       Mg784   2.326       .  S
O770       Mg784   2.147       .  S
O770        C781   1.236       .  S
O771       Mg790   2.183       .  S
O772       Mg784   2.355   1_545  S
Mg773       O789   2.379   1_545  S
O774       Mg790   2.335       .  S
H775        C780   1.081       .  S
O776       Mg784   2.147       .  S
O776        C779   1.237       .  S
H777        C779   1.081       .  S
H778        C781   1.081       .  S
O783       Mg790   2.296       .  S
C786       C2139   1.500       .  S
C786        O791   1.274       .  A
O787        C788   1.268       .  A
O793       Mg795   2.189       .  S
O793       Mg801   2.150   1_545  S
O793        C828   1.240   1_556  S
C794        H833   1.081       .  S
C794        O807   1.236       .  S
C794        O831   1.273       .  A
Mg795       O824   2.168       .  S
Mg795       O839   2.326       .  S
Mg795       O835   2.344       .  S
Mg795       O806   2.325       .  S
O796       Mg838   2.149   1_554  S
O796       Mg821   2.183       .  S
O796        C817   1.239       .  S
O797        C828   1.274       .  A
O797       Mg821   2.310   1_545  S
C798        C916   1.477       .  S
C798        O800   1.271       .  A
C798        O812   1.272       .  A
O799        C827   1.274       .  A
O799       Mg801   2.319       .  S
O800       Mg832   2.298       .  S
Mg801       O807   2.159       .  S
Mg801       O815   2.315   1_565  S
Mg801       O803   2.288   1_566  S
C802       C1273   1.505       .  S
C802        O840   1.274       .  A
C802        O808   1.280       .  A
O803        C810   1.277   1_545  A
H804        C817   1.081       .  S
C805        H830   1.081       .  S
C805        O819   1.237       .  S
C805        O820   1.275       .  A
O806        C829   1.273       .  A
O807       Mg821   2.172   1_556  S
O808       Mg838   2.302       .  S
C809       C2298   1.490       .  S
C809        O822   1.276       .  A
C809        O814   1.279       .  A
C810       C2605   1.507       .  S
C810        O837   1.276       .  A
Mg811       O818   2.190   1_565  S
Mg811       O819   2.176       .  S
Mg811       O812   2.314       .  S
Mg811       O813   2.313       .  S
Mg811       O840   2.334       .  S
O813        C817   1.274   1_556  A
O814       Mg821   2.344       .  S
O815        C834   1.273       .  A
O816        C836   1.280       .  A
O816       Mg832   2.310   1_545  S
O818       Mg832   2.149   1_545  S
O818        C829   1.236       .  S
O819       Mg838   2.165       .  S
O820       Mg832   2.326       .  S
Mg821       O837   2.351       .  S
O822       Mg838   2.329   1_554  S
H823        C828   1.078       .  S
O824       Mg832   2.151   1_545  S
O824        C827   1.237   1_545  S
H825        C827   1.081       .  S
H826        C829   1.081       .  S
O831       Mg838   2.318       .  S
C834        O839   1.273       .  A
O835        C836   1.274       .  A
O841       Mg843   2.187       .  S
O841       Mg849   2.158       .  S
O841        C876   1.238       .  S
C842        H881   1.081       .  S
C842        O855   1.238       .  S
C842        O879   1.273       .  A
Mg843       O872   2.132   1_556  S
Mg843       O887   2.292       .  S
Mg843       O883   2.315   1_556  S
Mg843       O854   2.317       .  S
O844       Mg886   2.191       .  S
O844       Mg869   2.164       .  S
O844        C865   1.236       .  S
O845        C876   1.276       .  A
O845       Mg869   2.329       .  S
C846        C909   1.512       .  S
C846        O848   1.276       .  A
C846        O860   1.274       .  A
O847        C875   1.274   1_556  A
O847       Mg849   2.329       .  S
O848       Mg880   2.376       .  S
Mg849       O855   2.180       .  S
Mg849       O863   2.351       .  S
Mg849       O851   2.353       .  S
C850       C1275   1.485       .  S
C850        O888   1.272       .  A
C850        O856   1.284       .  A
O851        C858   1.281       .  A
H852        C865   1.081       .  S
C853        H878   1.076       .  S
C853        O867   1.240   1_554  S
C853        O868   1.269       .  A
O854        C877   1.274       .  A
O855       Mg869   2.158       .  S
O856       Mg886   2.382       .  S
C857        O870   1.276       .  A
C857        O862   1.272       .  A
C858        O885   1.272       .  A
Mg859       O866   2.122       .  S
Mg859       O867   2.154       .  S
Mg859       O860   2.272   1_556  S
Mg859       O861   2.305       .  S
Mg859       O888   2.256       .  S
O861        C865   1.271       .  A
O862       Mg869   2.259       .  S
O863        C882   1.274       .  A
O864        C884   1.268       .  A
O864       Mg880   2.279       .  S
O866       Mg880   2.175   1_556  S
O866        C877   1.238       .  S
O867       Mg886   2.158       .  S
O868       Mg880   2.277       .  S
Mg869       O885   2.305       .  S
O870       Mg886   2.345       .  S
H871        C876   1.081       .  S
O872       Mg880   2.193       .  S
O872        C875   1.237       .  S
H873        C875   1.081       .  S
H874        C877   1.081       .  S
O879       Mg886   2.317       .  S
C882       C1086   1.487       .  S
C882        O887   1.274       .  A
O883        C884   1.266       .  A
C884       C1659   1.473       .  S
C889        C890   1.394   1_556  A
C889        C894   1.419       .  A
C890        C891   1.386       .  A
C890        H895   1.087       .  S
C891        C892   1.389       .  A
C891       C3599   1.479       .  S
C892        C893   1.412       .  A
C892        H896   1.084       .  S
C893        C894   1.422   1_554  A
C893       C1134   1.494   1_554  S
C894        H897   1.083       .  S
C898        C899   1.403       .  A
C898        C903   1.392       .  A
C898       C3585   1.478   1_545  S
C899        C900   1.400       .  A
C899        H904   1.085       .  S
C900        C901   1.404       .  A
C900       C3602   1.480       .  S
C901        C902   1.396       .  A
C901        H905   1.084   1_554  S
C902        C903   1.394       .  A
C902       C3574   1.472   1_554  S
C903        H906   1.085   1_545  S
C907        C908   1.438       .  A
C907        C912   1.397       .  A
C907       C2350   1.495       .  S
C908        C909   1.438       .  A
C908        H913   1.082       .  S
C909        C910   1.413       .  A
C910        C911   1.385       .  A
C910        H914   1.083       .  S
C911        C912   1.380       .  A
C911       C3588   1.481       .  S
C912        H915   1.087       .  S
C916        C917   1.397   1_565  A
C916        C921   1.424       .  A
C917        C918   1.387       .  A
C917        H922   1.086       .  S
C918        C919   1.383       .  A
C918       C3571   1.467       .  S
C919        C920   1.403   1_545  A
C919        H923   1.085       .  S
C920        C921   1.421       .  A
C920        C930   1.487       .  S
C921        H924   1.080       .  S
O925       Mg927   2.171       .  S
O925       Mg933   2.156       .  S
O925        C960   1.239       .  S
C926        H965   1.081       .  S
C926        O939   1.239       .  S
C926        O963   1.275       .  A
Mg927       O956   2.132       .  S
Mg927       O971   2.341       .  S
Mg927       O967   2.358       .  S
Mg927       O938   2.345       .  S
O928       Mg970   2.145       .  S
O928       Mg953   2.123       .  S
O928        C949   1.235       .  S
O929        C960   1.274       .  A
O929       Mg953   2.307   1_565  S
C930        O932   1.273       .  A
C930        O944   1.272   1_565  A
O931        C959   1.276       .  A
O931       Mg933   2.336       .  S
O932       Mg964   2.333       .  S
Mg933       O939   2.140   1_565  S
Mg933       O947   2.299       .  S
Mg933       O935   2.386       .  S
C934       C1741   1.497       .  S
C934        O972   1.274       .  A
C934        O940   1.270       .  A
O935        C942   1.284   1_565  A
H936        C949   1.081       .  S
C937        H962   1.081       .  S
C937        O951   1.240       .  S
C937        O952   1.275       .  A
O938        C961   1.281       .  A
O939       Mg953   2.140       .  S
O940       Mg970   2.236       .  S
C941        C993   1.474       .  S
C941        O954   1.267       .  A
C941        O946   1.266       .  A
C942        O969   1.265       .  A
Mg943       O950   2.155   1_545  S
Mg943       O951   2.183       .  S
Mg943       O944   2.281       .  S
Mg943       O945   2.289       .  S
Mg943       O972   2.355       .  S
O945        C949   1.268       .  A
O946       Mg953   2.285       .  S
O947        C966   1.273       .  A
O948        C968   1.266       .  A
O948       Mg964   2.278       .  S
O950       Mg964   2.119       .  S
O950        C961   1.243       .  S
O951       Mg970   2.118       .  S
O952       Mg964   2.316   1_545  S
Mg953       O969   2.219       .  S
O954       Mg970   2.314       .  S
H955        C960   1.081       .  S
O956       Mg964   2.172       .  S
O956        C959   1.237       .  S
H957        C959   1.081       .  S
H958        C961   1.081       .  S
O963       Mg970   2.323       .  S
C966        O971   1.277       .  A
O967        C968   1.273       .  A
C973        C974   1.399       .  A
C973        C978   1.426       .  A
C974        C975   1.382       .  A
C974        H979   1.087       .  S
C975        C976   1.387       .  A
C975       C3557   1.482       .  S
C976        C977   1.414       .  A
C976        H980   1.083       .  S
C977        C978   1.426       .  A
C977       C1109   1.499       .  S
C978        H981   1.083   1_545  S
C982        C983   1.398       .  A
C982        C987   1.390       .  A
C982       C3529   1.471   1_455  S
C983        C984   1.399       .  A
C983        H988   1.084       .  S
C984        C985   1.407       .  A
C984       C3560   1.481       .  S
C985        C986   1.397       .  A
C985        H989   1.084       .  S
C986        C987   1.393       .  A
C986       C3543   1.471   1_545  S
C987        H990   1.085       .  S
C991        C992   1.419       .  A
C991        C996   1.391       .  A
C991       C1986   1.468       .  S
C992        C993   1.421       .  A
C992        H997   1.083       .  S
C993        C994   1.403       .  A
C994        C995   1.382       .  A
C994        H998   1.085       .  S
C995        C996   1.381       .  A
C995       C3532   1.459       .  S
C996        H999   1.086       .  S
C1000      C1001   1.427       .  A
C1000      C1005   1.410       .  A
C1000      C1050   1.506       .  S
C1001      C1002   1.427       .  A
C1001      H1006   1.082   1_455  S
C1002      C1003   1.397       .  A
C1003      C1004   1.387       .  A
C1003      H1007   1.085       .  S
C1004      C1005   1.390       .  A
C1004      C3546   1.484       .  S
C1005      H1008   1.084       .  S
O1009     Mg1011   2.159   1_655  S
O1009     Mg1017   2.161       .  S
O1009      C1044   1.238       .  S
C1010      H1049   1.081       .  S
C1010      O1023   1.237       .  S
C1010      O1047   1.273   1_655  A
Mg1011     O1040   2.187       .  S
Mg1011     O1055   2.280       .  S
Mg1011     O1051   2.371       .  S
Mg1011     O1022   2.291       .  S
O1012     Mg1054   2.178       .  S
O1012     Mg1037   2.169       .  S
O1012      C1033   1.237       .  S
O1013      C1044   1.274       .  A
O1013     Mg1037   2.318       .  S
C1014      C1075   1.500       .  S
C1014      O1016   1.273       .  A
C1014      O1028   1.273       .  A
O1015      C1043   1.272       .  A
O1015     Mg1017   2.301   1_455  S
O1016     Mg1048   2.345       .  S
Mg1017     O1023   2.175       .  S
Mg1017     O1031   2.362       .  S
Mg1017     O1019   2.345       .  S
C1018      C1191   1.478       .  S
C1018      O1056   1.268       .  A
C1018      O1024   1.283   1_455  A
O1019      C1026   1.282       .  A
H1020      C1033   1.081       .  S
C1021      H1046   1.080       .  S
C1021      O1035   1.237       .  S
C1021      O1036   1.269       .  A
O1022      C1045   1.269       .  A
O1023     Mg1037   2.150       .  S
O1024     Mg1054   2.350       .  S
C1025      O1038   1.273       .  A
C1025      O1030   1.276       .  A
C1026      O1053   1.274       .  A
Mg1027     O1034   2.121       .  S
Mg1027     O1035   2.141       .  S
Mg1027     O1028   2.261       .  S
Mg1027     O1029   2.317   1_455  S
Mg1027     O1056   2.276       .  S
O1029      C1033   1.273       .  A
O1030     Mg1037   2.275       .  S
O1031      C1050   1.280   1_655  A
O1032      C1052   1.267       .  A
O1032     Mg1048   2.213       .  S
O1034     Mg1048   2.181       .  S
O1034      C1045   1.236       .  S
O1035     Mg1054   2.143   1_455  S
O1036     Mg1048   2.290       .  S
Mg1037     O1053   2.330       .  S
O1038     Mg1054   2.339       .  S
H1039      C1044   1.081       .  S
O1040     Mg1048   2.145       .  S
O1040      C1043   1.238       .  S
H1041      C1043   1.081       .  S
H1042      C1045   1.081       .  S
O1047     Mg1054   2.315   1_455  S
C1050      O1055   1.278       .  A
O1051      C1052   1.277       .  A
C1057      C1058   1.397       .  A
C1057      C1062   1.429       .  A
C1057      C1602   1.483       .  S
C1058      C1059   1.388       .  A
C1058      H1063   1.086       .  S
C1059      C1060   1.386       .  A
C1059      C3518   1.482       .  S
C1060      C1061   1.409       .  A
C1060      H1064   1.085       .  S
C1061      C1062   1.430       .  A
C1061      C1098   1.503       .  S
C1062      H1065   1.082   1_455  S
C1066      C1067   1.404       .  A
C1066      C1071   1.396   1_554  A
C1066      C3515   1.474       .  S
C1067      C1068   1.398       .  A
C1067      H1072   1.085       .  S
C1068      C1069   1.397   1_554  A
C1068      C3504   1.479       .  S
C1069      C1070   1.391       .  A
C1069      H1073   1.085       .  S
C1070      C1071   1.403       .  A
C1070      C3487   1.467       .  S
C1071      H1074   1.084       .  S
C1075      C1076   1.412       .  A
C1075      C1080   1.428       .  A
C1076      C1077   1.388       .  A
C1076      H1081   1.084       .  S
C1077      C1078   1.386       .  A
C1077      C3490   1.481       .  S
C1078      C1079   1.393       .  A
C1078      H1082   1.086       .  S
C1079      C1080   1.425       .  A
C1079      C2566   1.477       .  S
C1080      H1083   1.082       .  S
C1084      C1085   1.416   1_554  A
C1084      C1089   1.401       .  A
C1084      C1146   1.485   1_554  S
C1085      C1086   1.410       .  A
C1085      H1090   1.083       .  S
C1086      C1087   1.402       .  A
C1087      C1088   1.412   1_556  A
C1087      H1091   1.074       .  S
C1088      C1089   1.412       .  A
C1088      C3501   1.532       .  S
C1089      H1092   1.072       .  S
O1093     Mg1095   2.161       .  S
O1093     Mg1101   2.134       .  S
O1093      C1128   1.235       .  S
C1094      H1133   1.081       .  S
C1094      O1107   1.240       .  S
C1094      O1131   1.275       .  A
Mg1095     O1124   2.130   1_556  S
Mg1095     O1139   2.277   1_556  S
Mg1095     O1135   2.262   1_556  S
Mg1095     O1106   2.315   1_545  S
O1096     Mg1138   2.156       .  S
O1096     Mg1121   2.130   1_565  S
O1096      C1117   1.240       .  S
O1097      C1128   1.272       .  A
O1097     Mg1121   2.320   1_655  S
C1098      O1100   1.278   1_455  A
C1098      O1112   1.278       .  A
O1099      C1127   1.277   1_455  A
O1099     Mg1101   2.336   1_454  S
O1100     Mg1132   2.356       .  S
Mg1101     O1107   2.145   1_655  S
Mg1101     O1115   2.352       .  S
Mg1101     O1103   2.330       .  S
C1102      C2625   1.499       .  S
C1102      O1140   1.275       .  A
C1102      O1108   1.270       .  A
O1103      C1110   1.282   1_655  A
H1104      C1117   1.081       .  S
C1105      H1130   1.081       .  S
C1105      O1119   1.235   1_554  S
C1105      O1120   1.269       .  A
O1106      C1129   1.275       .  A
O1107     Mg1121   2.153       .  S
O1108     Mg1138   2.286       .  S
C1109      O1122   1.272   1_545  A
C1109      O1114   1.270       .  A
C1110      C2049   1.482       .  S
C1110      O1137   1.268       .  A
Mg1111     O1118   2.159   1_456  S
Mg1111     O1119   2.133       .  S
Mg1111     O1112   2.280   1_556  S
Mg1111     O1113   2.325       .  S
Mg1111     O1140   2.370       .  S
O1113      C1117   1.276       .  A
O1114     Mg1121   2.244       .  S
O1115      C1134   1.269       .  A
O1116      C1136   1.279       .  A
O1116     Mg1132   2.335       .  S
O1118     Mg1132   2.186       .  S
O1118      C1129   1.240   1_554  S
O1119     Mg1138   2.150       .  S
O1120     Mg1132   2.300   1_455  S
Mg1121     O1137   2.295       .  S
O1122     Mg1138   2.344       .  S
H1123      C1128   1.081       .  S
O1124     Mg1132   2.167   1_545  S
O1124      C1127   1.239       .  S
H1125      C1127   1.081   1_455  S
H1126      C1129   1.081       .  S
O1131     Mg1138   2.309   1_545  S
C1134      O1139   1.266   1_556  A
O1135      C1136   1.266   1_545  A
C1136      C2325   1.471       .  S
O1141     Mg1143   2.171       .  S
O1141     Mg1149   2.132   1_554  S
O1141      C1176   1.240       .  S
C1142      H1181   1.081       .  S
C1142      O1155   1.241       .  S
C1142      O1179   1.278       .  A
Mg1143     O1172   2.121   1_455  S
Mg1143     O1187   2.343   1_455  S
Mg1143     O1183   2.400   1_455  S
Mg1143     O1154   2.354       .  S
O1144     Mg1186   2.141       .  S
O1144     Mg1169   2.178       .  S
O1144      C1165   1.236       .  S
O1145      C1176   1.276       .  A
O1145     Mg1169   2.318   1_554  S
C1146      O1148   1.267   1_556  A
C1146      O1160   1.269       .  A
O1147      C1175   1.278   1_556  A
O1147     Mg1149   2.342   1_655  S
O1148     Mg1180   2.309       .  S
Mg1149     O1155   2.171       .  S
Mg1149     O1163   2.336   1_556  S
Mg1149     O1151   2.404       .  S
C1150      C1189   1.469       .  S
C1150      O1188   1.265   1_455  A
C1150      O1156   1.277       .  A
O1151      C1158   1.284       .  A
H1152      C1165   1.081       .  S
C1153      H1178   1.081       .  S
C1153      O1167   1.238       .  S
C1153      O1168   1.274       .  A
O1154      C1177   1.283       .  A
O1155     Mg1169   2.133       .  S
O1156     Mg1186   2.322       .  S
C1157      C2502   1.469       .  S
C1157      O1170   1.268       .  A
C1157      O1162   1.273       .  A
C1158      C2031   1.496       .  S
C1158      O1185   1.272       .  A
Mg1159     O1166   2.154   1_556  S
Mg1159     O1167   2.147       .  S
Mg1159     O1160   2.337       .  S
Mg1159     O1161   2.325   1_655  S
Mg1159     O1188   2.271       .  S
O1161      C1165   1.273       .  A
O1162     Mg1169   2.338       .  S
O1163      C1182   1.278       .  A
O1164      C1184   1.258       .  A
O1164     Mg1180   2.266       .  S
O1166     Mg1180   2.110       .  S
O1166      C1177   1.246   1_655  S
O1167     Mg1186   2.142   1_655  S
O1168     Mg1180   2.319   1_556  S
Mg1169     O1185   2.274       .  S
O1170     Mg1186   2.296       .  S
H1171      C1176   1.081       .  S
O1172     Mg1180   2.173       .  S
O1172      C1175   1.238       .  S
H1173      C1175   1.081   1_556  S
H1174      C1177   1.080       .  S
O1179     Mg1186   2.332       .  S
C1182      O1187   1.276   1_455  A
O1183      C1184   1.269       .  A
C1189      C1190   1.412       .  A
C1189      C1194   1.398   1_455  A
C1190      C1191   1.409       .  A
C1190      H1195   1.083       .  S
C1191      C1192   1.395       .  A
C1192      C1193   1.406       .  A
C1192      H1196   1.077       .  S
C1193      C1194   1.403   1_455  A
C1193      C3473   1.515       .  S
C1194      H1197   1.075       .  S
C1198      C1199   1.399       .  A
C1198      C1203   1.406       .  A
C1198      C3448   1.482       .  S
C1199      C1200   1.401   1_455  A
C1199      H1204   1.082       .  S
C1200      C1201   1.389       .  A
C1200      C3462   1.455       .  S
C1201      C1202   1.390   1_655  A
C1201      H1205   1.085       .  S
C1202      C1203   1.386       .  A
C1202      C3476   1.459       .  S
C1203      H1206   1.084       .  S
C1207      C1208   1.393       .  A
C1207      C1212   1.425       .  A
C1207      C1434   1.476       .  S
C1208      C1209   1.384       .  A
C1208      H1213   1.087       .  S
C1209      C1210   1.395       .  A
C1209      C3445   1.484       .  S
C1210      C1211   1.412       .  A
C1210      H1214   1.084       .  S
C1211      C1212   1.425       .  A
C1211      C1998   1.497       .  S
C1212      H1215   1.083       .  S
C1216      C1217   1.405       .  A
C1216      C1221   1.433       .  A
C1217      C1218   1.383       .  A
C1217      H1222   1.085       .  S
C1218      C1219   1.383       .  A
C1218      C3459   1.473       .  S
C1219      C1220   1.399       .  A
C1219      H1223   1.086       .  S
C1220      C1221   1.431       .  A
C1220      C1241   1.484       .  S
C1221      H1224   1.083       .  S
O1225     Mg1227   2.139       .  S
O1225     Mg1233   2.128   1_455  S
O1225      C1260   1.242       .  S
C1226      H1265   1.081       .  S
C1226      O1239   1.237       .  S
C1226      O1263   1.274       .  A
Mg1227     O1256   2.156       .  S
Mg1227     O1271   2.333       .  S
Mg1227     O1267   2.210       .  S
Mg1227     O1238   2.272       .  S
O1228     Mg1270   2.148       .  S
O1228     Mg1253   2.168       .  S
O1228      C1249   1.240       .  S
O1229      C1260   1.276   1_655  A
O1229     Mg1253   2.311       .  S
C1230      C1402   1.477       .  S
C1230      O1232   1.276       .  A
C1230      O1244   1.279       .  A
O1231      C1259   1.275   1_655  A
O1231     Mg1233   2.314       .  S
O1232     Mg1264   2.298       .  S
Mg1233     O1239   2.138       .  S
Mg1233     O1247   2.304       .  S
Mg1233     O1235   2.329       .  S
C1234      C1947   1.482       .  S
C1234      O1272   1.275   1_655  A
C1234      O1240   1.279       .  A
O1235      C1242   1.274       .  A
H1236      C1249   1.081       .  S
C1237      H1262   1.081       .  S
C1237      O1251   1.240       .  S
C1237      O1252   1.277   1_655  A
O1238      C1261   1.266       .  A
O1239     Mg1253   2.140       .  S
O1240     Mg1270   2.345       .  S
C1241      O1254   1.277       .  A
C1241      O1246   1.268       .  A
C1242      C1813   1.476       .  S
C1242      O1269   1.271       .  A
Mg1243     O1250   2.169       .  S
Mg1243     O1251   2.169   1_455  S
Mg1243     O1244   2.351       .  S
Mg1243     O1245   2.316       .  S
Mg1243     O1272   2.289       .  S
O1245      C1249   1.275   1_455  A
O1246     Mg1253   2.316       .  S
O1247      C1266   1.274   1_655  A
O1248      C1268   1.285       .  A
O1248     Mg1264   2.461       .  S
O1250     Mg1264   2.186       .  S
O1250      C1261   1.235       .  S
O1251     Mg1270   2.204       .  S
O1252     Mg1264   2.331       .  S
Mg1253     O1269   2.286       .  S
O1254     Mg1270   2.363       .  S
H1255      C1260   1.081       .  S
O1256     Mg1264   2.165       .  S
O1256      C1259   1.239       .  S
H1257      C1259   1.081       .  S
H1258      C1261   1.081       .  S
O1263     Mg1270   2.324       .  S
C1266      O1271   1.275       .  A
O1267      C1268   1.270       .  A
C1273      C1274   1.427       .  A
C1273      C1278   1.406   1_556  A
C1274      C1275   1.425       .  A
C1274      H1279   1.082       .  S
C1275      C1276   1.402   1_556  A
C1276      C1277   1.387       .  A
C1276      H1280   1.086       .  S
C1277      C1278   1.398       .  A
C1277      C3431   1.497       .  S
C1278      H1281   1.079       .  S
C1282      C1283   1.408   1_554  A
C1282      C1287   1.397       .  A
C1282      C3434   1.480       .  S
C1283      C1284   1.391       .  A
C1283      H1288   1.083       .  S
C1284      C1285   1.391       .  A
C1284      C3417   1.459       .  S
C1285      C1286   1.383   1_556  A
C1285      H1289   1.086       .  S
C1286      C1287   1.397       .  A
C1286      C3403   1.454       .  S
C1287      H1290   1.084       .  S
C1291      C1292   1.405       .  A
C1291      C1296   1.444       .  A
C1291      C2598   1.517       .  S
C1292      C1293   1.371       .  A
C1292      H1297   1.086       .  S
C1293      C1294   1.371       .  A
C1293      C3406   1.455       .  S
C1294      C1295   1.392       .  A
C1294      H1298   1.088       .  S
C1295      C1296   1.448       .  A
C1295      C2216   1.490       .  S
C1296      H1299   1.082       .  S
C1300      C1301   1.398       .  A
C1300      C1305   1.421       .  A
C1300      C1318   1.489       .  S
C1301      C1302   1.408       .  A
C1301      H1306   1.081       .  S
C1302      C1303   1.402       .  A
C1302      C3420   1.507       .  S
C1303      C1304   1.394       .  A
C1303      H1307   1.077       .  S
C1304      C1305   1.421       .  A
C1305      H1308   1.082       .  S
O1309     Mg1311   2.166       .  S
O1309     Mg1317   2.140       .  S
O1309      C1344   1.239   1_554  S
C1310      H1349   1.081       .  S
C1310      O1323   1.241       .  S
C1310      O1347   1.276       .  A
Mg1311     O1340   2.123       .  S
Mg1311     O1355   2.311       .  S
Mg1311     O1351   2.339       .  S
Mg1311     O1322   2.346   1_554  S
O1312     Mg1354   2.178       .  S
O1312     Mg1337   2.176       .  S
O1312      C1333   1.237       .  S
O1313      C1344   1.277       .  A
O1313     Mg1337   2.331       .  S
C1314      C1359   1.483       .  S
C1314      O1316   1.269       .  A
C1314      O1328   1.284       .  A
O1315      C1343   1.275       .  A
O1315     Mg1317   2.310       .  S
O1316     Mg1348   2.249       .  S
Mg1317     O1323   2.188       .  S
Mg1317     O1331   2.340       .  S
Mg1317     O1319   2.317       .  S
C1318      O1356   1.280       .  A
C1318      O1324   1.282       .  A
O1319      C1326   1.272       .  A
H1320      C1333   1.081       .  S
C1321      H1346   1.080       .  S
C1321      O1335   1.237       .  S
C1321      O1336   1.270       .  A
O1322      C1345   1.280       .  A
O1323     Mg1337   2.153   1_554  S
O1324     Mg1354   2.351       .  S
C1325      C2482   1.502       .  S
C1325      O1338   1.274       .  A
C1325      O1330   1.278       .  A
C1326      C2101   1.483       .  S
C1326      O1353   1.276       .  A
Mg1327     O1334   2.191       .  S
Mg1327     O1335   2.144       .  S
Mg1327     O1328   2.390       .  S
Mg1327     O1329   2.323       .  S
Mg1327     O1356   2.340       .  S
O1329      C1333   1.274       .  A
O1330     Mg1337   2.283       .  S
O1331      C1350   1.273       .  A
O1332      C1352   1.271       .  A
O1332     Mg1348   2.344       .  S
O1334     Mg1348   2.150       .  S
O1334      C1345   1.240       .  S
O1335     Mg1354   2.168       .  S
O1336     Mg1348   2.296       .  S
Mg1337     O1353   2.338   1_556  S
O1338     Mg1354   2.358       .  S
H1339      C1344   1.081       .  S
O1340     Mg1348   2.190   1_554  S
O1340      C1343   1.243       .  S
H1341      C1343   1.075       .  S
H1342      C1345   1.081       .  S
O1347     Mg1354   2.322   1_554  S
C1350      O1355   1.274       .  A
O1351      C1352   1.270   1_554  A
C1357      C1358   1.433       .  A
C1357      C1362   1.412       .  A
C1358      C1359   1.434       .  A
C1358      H1363   1.079       .  S
C1359      C1360   1.397       .  A
C1360      C1361   1.378       .  A
C1360      H1364   1.087       .  S
C1361      C1362   1.388       .  A
C1361      C3389   1.474       .  S
C1362      H1365   1.083       .  S
C1366      C1367   1.405       .  A
C1366      C1371   1.410       .  A
C1367      C1368   1.402       .  A
C1367      H1372   1.081       .  S
C1368      C1369   1.395       .  A
C1368      C3375   1.501       .  S
C1369      C1370   1.394       .  A
C1369      H1373   1.084       .  S
C1370      C1371   1.410       .  A
C1370      C1446   1.463       .  S
C1371      H1374   1.083       .  S
C1375      C1376   1.392       .  A
C1375      C1380   1.400       .  A
C1375      C3392   1.458       .  S
C1376      C1377   1.398       .  A
C1376      H1381   1.081       .  S
C1377      C1378   1.392       .  A
C1377      C3361   1.468       .  S
C1378      C1379   1.395       .  A
C1378      H1382   1.084       .  S
C1379      C1380   1.394       .  A
C1379      C3378   1.459       .  S
C1380      H1383   1.084       .  S
C1384      C1385   1.412       .  A
C1384      C1389   1.428       .  A
C1384      C1709   1.498       .  S
C1385      C1386   1.387       .  A
C1385      H1390   1.084       .  S
C1386      C1387   1.378       .  A
C1386      C3364   1.474       .  S
C1387      C1388   1.396       .  A
C1387      H1391   1.088       .  S
C1388      C1389   1.427       .  A
C1388      C2650   1.475       .  S
C1389      H1392   1.081       .  S
C1393      C1394   1.397       .  A
C1393      C1398   1.442       .  A
C1394      C1395   1.385       .  A
C1394      H1399   1.086       .  S
C1395      C1396   1.381       .  A
C1395      C3347   1.470       .  S
C1396      C1397   1.400       .  A
C1396      H1400   1.085       .  S
C1397      C1398   1.441       .  A
C1397      C1556   1.515       .  S
C1398      H1401   1.079       .  S
C1402      C1403   1.400       .  A
C1402      C1407   1.430       .  A
C1403      C1404   1.386       .  A
C1403      H1408   1.085       .  S
C1404      C1405   1.399       .  A
C1404      C3333   1.492       .  S
C1405      C1406   1.400       .  A
C1405      H1409   1.083       .  S
C1406      C1407   1.425       .  A
C1406      C2406   1.504       .  S
C1407      H1410   1.083       .  S
C1411      C1412   1.424       .  A
C1411      C1416   1.408       .  A
C1411      C1445   1.498       .  S
C1412      C1413   1.428       .  A
C1412      H1417   1.083       .  S
C1413      C1414   1.398       .  A
C1413      C2646   1.469       .  S
C1414      C1415   1.377       .  A
C1414      H1418   1.085       .  S
C1415      C1416   1.388       .  A
C1415      C3319   1.467       .  S
C1416      H1419   1.085       .  S
C1420      C1421   1.389       .  A
C1420      C1425   1.393       .  A
C1420      C3322   1.456       .  S
C1421      C1422   1.397       .  A
C1421      H1426   1.083       .  S
C1422      C1423   1.408       .  A
C1422      C3350   1.495       .  S
C1423      C1424   1.412       .  A
C1423      H1427   1.072       .  S
C1424      C1425   1.396       .  A
C1424      C3336   1.505       .  S
C1425      H1428   1.084       .  S
O1429     Mg1431   2.147       .  S
O1429     Mg1437   2.146       .  S
O1429      C1464   1.233       .  S
C1430      H1469   1.081       .  S
C1430      O1443   1.236       .  S
C1430      O1467   1.269       .  A
Mg1431     O1460   2.150       .  S
Mg1431     O1475   2.328       .  S
Mg1431     O1471   2.200       .  S
Mg1431     O1442   2.293       .  S
O1432     Mg1474   2.133       .  S
O1432     Mg1457   2.148       .  S
O1432      C1453   1.246       .  S
O1433      C1464   1.267       .  A
O1433     Mg1457   2.296       .  S
C1434      O1436   1.280       .  A
C1434      O1448   1.274       .  A
O1435      C1463   1.275       .  A
O1435     Mg1437   2.318       .  S
O1436     Mg1468   2.327       .  S
Mg1437     O1443   2.148       .  S
Mg1437     O1451   2.268       .  S
Mg1437     O1439   2.323       .  S
C1438      C2455   1.468       .  S
C1438      O1476   1.269       .  A
C1438      O1444   1.261       .  A
O1439      C1446   1.275       .  A
H1440      C1453   1.081       .  S
C1441      H1466   1.080       .  S
C1441      O1455   1.236       .  S
C1441      O1456   1.267       .  A
O1442      C1465   1.271       .  A
O1443     Mg1457   2.193       .  S
O1444     Mg1474   2.280       .  S
C1445      O1458   1.266       .  A
C1445      O1450   1.279       .  A
C1446      O1473   1.275       .  A
Mg1447     O1454   2.151       .  S
Mg1447     O1455   2.120       .  S
Mg1447     O1448   2.338       .  S
Mg1447     O1449   2.349       .  S
Mg1447     O1476   2.314       .  S
O1449      C1453   1.283       .  A
O1450     Mg1457   2.400       .  S
O1451      C1470   1.269       .  A
O1452      C1472   1.280       .  A
O1452     Mg1468   2.379       .  S
O1454     Mg1468   2.173       .  S
O1454      C1465   1.238       .  S
O1455     Mg1474   2.124       .  S
O1456     Mg1468   2.284       .  S
Mg1457     O1473   2.248       .  S
O1458     Mg1474   2.196       .  S
H1459      C1464   1.081       .  S
O1460     Mg1468   2.174       .  S
O1460      C1463   1.240       .  S
H1461      C1463   1.081       .  S
H1462      C1465   1.081       .  S
O1467     Mg1474   2.286       .  S
C1470      O1475   1.274       .  A
O1471      C1472   1.270       .  A
C1472      C2500   1.480       .  S
C1477      C1478   1.404       .  A
C1477      C1482   1.429       .  A
C1478      C1479   1.381       .  A
C1478      H1483   1.085       .  S
C1479      C1480   1.382       .  A
C1479      C3308   1.467       .  S
C1480      C1481   1.395       .  A
C1480      H1484   1.087       .  S
C1481      C1482   1.429       .  A
C1481      C1577   1.475       .  S
C1482      H1485   1.080       .  S
C1486      C1487   1.386       .  A
C1486      C1491   1.396       .  A
C1486      C3291   1.445       .  S
C1487      C1488   1.387       .  A
C1487      H1492   1.085       .  S
C1488      C1489   1.394       .  A
C1488      C3277   1.452       .  S
C1489      C1490   1.404       .  A
C1489      H1493   1.083       .  S
C1490      C1491   1.395       .  A
C1490      C3305   1.481       .  S
C1491      H1494   1.082       .  S
C1495      C1496   1.391       .  A
C1495      C1500   1.427       .  A
C1495      C2237   1.463       .  S
C1496      C1497   1.369       .  A
C1496      H1501   1.087       .  S
C1497      C1498   1.379       .  A
C1497      C3280   1.453       .  S
C1498      C1499   1.393       .  A
C1498      H1502   1.087       .  S
C1499      C1500   1.423       .  A
C1499      C2600   1.476       .  S
C1500      H1503   1.082       .  S
C1504      C1505   1.403       .  A
C1504      C1509   1.424       .  A
C1504      C1554   1.471       .  S
C1505      C1506   1.385       .  A
C1505      H1510   1.086       .  S
C1506      C1507   1.381       .  A
C1506      C3294   1.476       .  S
C1507      C1508   1.405       .  A
C1507      H1511   1.086       .  S
C1508      C1509   1.424       .  A
C1508      C2214   1.486       .  S
C1509      H1512   1.082       .  S
O1513     Mg1515   2.198       .  S
O1513     Mg1521   2.167       .  S
O1513      C1548   1.241       .  S
C1514      H1553   1.081       .  S
C1514      O1527   1.237       .  S
C1514      O1551   1.271       .  A
Mg1515     O1544   2.160       .  S
Mg1515     O1559   2.374       .  S
Mg1515     O1555   2.388       .  S
Mg1515     O1526   2.334       .  S
O1516     Mg1558   2.153       .  S
O1516     Mg1541   2.162       .  S
O1516      C1537   1.237       .  S
O1517      C1548   1.277       .  A
O1517     Mg1541   2.325       .  S
C1518      O1520   1.276       .  A
C1518      O1532   1.282       .  A
O1519      C1547   1.272       .  A
O1519     Mg1521   2.305       .  S
O1520     Mg1552   2.292       .  S
Mg1521     O1527   2.107       .  S
Mg1521     O1535   2.221       .  S
Mg1521     O1523   2.280       .  S
C1522      O1560   1.278       .  A
C1522      O1528   1.271       .  A
O1523      C1530   1.275       .  A
H1524      C1537   1.081       .  S
C1525      H1550   1.081       .  S
C1525      O1539   1.240       .  S
C1525      O1540   1.277       .  A
O1526      C1549   1.276       .  A
O1527     Mg1541   2.159       .  S
O1528     Mg1558   2.247       .  S
C1529      C2475   1.483       .  S
C1529      O1542   1.275       .  A
C1529      O1534   1.280       .  A
C1530      C2105   1.518       .  S
C1530      O1557   1.277       .  A
Mg1531     O1538   2.181       .  S
Mg1531     O1539   2.203       .  S
Mg1531     O1532   2.384       .  S
Mg1531     O1533   2.305       .  S
Mg1531     O1560   2.351       .  S
O1533      C1537   1.271       .  A
O1534     Mg1541   2.349       .  S
O1535      C1554   1.265       .  A
O1536      C1556   1.280       .  A
O1536     Mg1552   2.341       .  S
O1538     Mg1552   2.128       .  S
O1538      C1549   1.238       .  S
O1539     Mg1558   2.187       .  S
O1540     Mg1552   2.321       .  S
Mg1541     O1557   2.386       .  S
O1542     Mg1558   2.329       .  S
H1543      C1548   1.081       .  S
O1544     Mg1552   2.162       .  S
O1544      C1547   1.237       .  S
H1545      C1547   1.081       .  S
H1546      C1549   1.081       .  S
O1551     Mg1558   2.301       .  S
C1554      O1559   1.283       .  A
O1555      C1556   1.279       .  A
O1561     Mg1563   2.180   1_455  S
O1561     Mg1569   2.145       .  S
O1561      C1596   1.240       .  S
C1562      H1601   1.081       .  S
C1562      O1575   1.239       .  S
C1562      O1599   1.275       .  A
Mg1563     O1592   2.162       .  S
Mg1563     O1607   2.386       .  S
Mg1563     O1603   2.310       .  S
Mg1563     O1574   2.324   1_655  S
O1564     Mg1606   2.139       .  S
O1564     Mg1589   2.145       .  S
O1564      C1585   1.238       .  S
O1565      C1596   1.278       .  A
O1565     Mg1589   2.338       .  S
C1566      O1568   1.280       .  A
C1566      O1580   1.280       .  A
O1567      C1595   1.277       .  A
O1567     Mg1569   2.325   1_655  S
O1568     Mg1600   2.376       .  S
Mg1569     O1575   2.152       .  S
Mg1569     O1583   2.252       .  S
Mg1569     O1571   2.345       .  S
C1570      O1608   1.275   1_455  A
C1570      O1576   1.268       .  A
O1571      C1578   1.274       .  A
H1572      C1585   1.081       .  S
C1573      H1598   1.081       .  S
C1573      O1587   1.238       .  S
C1573      O1588   1.273       .  A
O1574      C1597   1.274   1_455  A
O1575     Mg1589   2.142       .  S
O1576     Mg1606   2.270       .  S
C1577      O1590   1.268       .  A
C1577      O1582   1.276       .  A
C1578      C2332   1.472       .  S
C1578      O1605   1.267       .  A
Mg1579     O1586   2.164       .  S
Mg1579     O1587   2.150       .  S
Mg1579     O1580   2.300       .  S
Mg1579     O1581   2.324   1_655  S
Mg1579     O1608   2.372       .  S
O1581      C1585   1.274       .  A
O1582     Mg1589   2.351       .  S
O1583      C1602   1.270       .  A
O1584      C1604   1.279       .  A
O1584     Mg1600   2.324       .  S
O1586     Mg1600   2.157       .  S
O1586      C1597   1.237       .  S
O1587     Mg1606   2.155   1_655  S
O1588     Mg1600   2.312       .  S
Mg1589     O1605   2.297       .  S
O1590     Mg1606   2.278       .  S
H1591      C1596   1.081       .  S
O1592     Mg1600   2.210       .  S
O1592      C1595   1.240       .  S
H1593      C1595   1.081       .  S
H1594      C1597   1.081       .  S
O1599     Mg1606   2.314       .  S
C1602      O1607   1.282   1_455  A
O1603      C1604   1.275       .  A
C1604      C1657   1.485       .  S
O1609     Mg1611   2.160       .  S
O1609     Mg1617   2.134       .  S
O1609      C1644   1.236       .  S
C1610      H1649   1.081       .  S
C1610      O1623   1.237       .  S
C1610      O1647   1.271       .  A
Mg1611     O1640   2.166       .  S
Mg1611     O1655   2.375       .  S
Mg1611     O1651   2.239       .  S
Mg1611     O1622   2.292       .  S
O1612     Mg1654   2.129       .  S
O1612     Mg1637   2.154       .  S
O1612      C1633   1.244       .  S
O1613      C1644   1.272       .  A
O1613     Mg1637   2.315       .  S
C1614      O1616   1.278       .  A
C1614      O1628   1.277       .  A
O1615      C1643   1.275       .  A
O1615     Mg1617   2.308       .  S
O1616     Mg1648   2.307       .  S
Mg1617     O1623   2.153       .  S
Mg1617     O1631   2.244       .  S
Mg1617     O1619   2.332       .  S
C1618      O1656   1.273       .  A
C1618      O1624   1.263       .  A
O1619      C1626   1.275       .  A
H1620      C1633   1.081       .  S
C1621      H1646   1.081       .  S
C1621      O1635   1.238       .  S
C1621      O1636   1.275       .  A
O1622      C1645   1.268       .  A
O1623     Mg1637   2.169       .  S
O1624     Mg1654   2.311       .  S
C1625      C1688   1.500       .  S
C1625      O1638   1.271       .  A
C1625      O1630   1.278       .  A
C1626      C1840   1.461       .  S
C1626      O1653   1.270       .  A
Mg1627     O1634   2.167       .  S
Mg1627     O1635   2.111       .  S
Mg1627     O1628   2.336       .  S
Mg1627     O1629   2.350       .  S
Mg1627     O1656   2.347       .  S
O1629      C1633   1.283       .  A
O1630     Mg1637   2.394       .  S
O1631      C1650   1.272       .  A
O1632      C1652   1.286       .  A
O1632     Mg1648   2.424       .  S
O1634     Mg1648   2.170       .  S
O1634      C1645   1.234       .  S
O1635     Mg1654   2.158       .  S
O1636     Mg1648   2.329       .  S
Mg1637     O1653   2.257       .  S
O1638     Mg1654   2.224       .  S
H1639      C1644   1.081       .  S
O1640     Mg1648   2.182       .  S
O1640      C1643   1.241       .  S
H1641      C1643   1.081       .  S
H1642      C1645   1.081       .  S
O1647     Mg1654   2.298       .  S
C1650      C2110   1.485       .  S
C1650      O1655   1.279       .  A
O1651      C1652   1.275       .  A
C1657      C1658   1.420       .  A
C1657      C1662   1.400       .  A
C1658      C1659   1.421       .  A
C1658      H1663   1.083       .  S
C1659      C1660   1.400       .  A
C1660      C1661   1.382       .  A
C1660      H1664   1.085       .  S
C1661      C1662   1.391       .  A
C1661      C3263   1.467       .  S
C1662      H1665   1.086       .  S
C1666      C1667   1.415       .  A
C1666      C1671   1.400       .  A
C1666      C3235   1.495       .  S
C1667      C1668   1.391       .  A
C1667      H1672   1.083       .  S
C1668      C1669   1.388       .  A
C1668      C3266   1.468       .  S
C1669      C1670   1.392       .  A
C1669      H1673   1.085       .  S
C1670      C1671   1.400       .  A
C1670      C3252   1.460       .  S
C1671      H1674   1.080       .  S
C1675      C1676   1.411       .  A
C1675      C1680   1.425       .  A
C1675      C2182   1.499       .  S
C1676      C1677   1.391       .  A
C1676      H1681   1.084       .  S
C1677      C1678   1.387       .  A
C1677      C3238   1.479       .  S
C1678      C1679   1.396       .  A
C1678      H1682   1.087       .  S
C1679      C1680   1.424       .  A
C1679      C2357   1.480       .  S
C1680      H1683   1.083       .  S
C1684      C1685   1.392       .  A
C1684      C1689   1.430       .  A
C1685      C1686   1.378       .  A
C1685      H1690   1.087       .  S
C1686      C1687   1.384       .  A
C1686      C3249   1.459       .  S
C1687      C1688   1.405       .  A
C1687      H1691   1.085       .  S
C1688      C1689   1.430       .  A
C1689      H1692   1.082       .  S
O1693     Mg1695   2.150       .  S
O1693     Mg1701   2.164       .  S
O1693      C1728   1.238       .  S
C1694      H1733   1.081       .  S
C1694      O1707   1.235       .  S
C1694      O1731   1.269       .  A
Mg1695     O1724   2.160       .  S
Mg1695     O1739   2.292       .  S
Mg1695     O1735   2.302       .  S
Mg1695     O1706   2.319       .  S
O1696     Mg1738   2.187       .  S
O1696     Mg1721   2.166       .  S
O1696      C1717   1.241       .  S
O1697      C1728   1.275       .  A
O1697     Mg1721   2.327       .  S
C1698      C2466   1.512       .  S
C1698      O1700   1.278       .  A
C1698      O1712   1.279       .  A
O1699      C1727   1.274       .  A
O1699     Mg1701   2.308       .  S
O1700     Mg1732   2.368       .  S
Mg1701     O1707   2.141       .  S
Mg1701     O1715   2.297       .  S
Mg1701     O1703   2.289       .  S
C1702      C2065   1.476       .  S
C1702      O1740   1.270       .  A
C1702      O1708   1.275       .  A
O1703      C1710   1.270       .  A
H1704      C1717   1.081       .  S
C1705      H1730   1.081       .  S
C1705      O1719   1.236       .  S
C1705      O1720   1.273       .  A
O1706      C1729   1.274       .  A
O1707     Mg1721   2.137       .  S
O1708     Mg1738   2.292       .  S
C1709      O1722   1.275       .  A
C1709      O1714   1.274       .  A
C1710      C1768   1.496       .  S
C1710      O1737   1.273       .  A
Mg1711     O1718   2.146       .  S
Mg1711     O1719   2.129       .  S
Mg1711     O1712   2.324       .  S
Mg1711     O1713   2.329       .  S
Mg1711     O1740   2.287       .  S
O1713      C1717   1.278       .  A
O1714     Mg1721   2.266       .  S
O1715      C1734   1.269       .  A
O1716      C1736   1.277       .  A
O1716     Mg1732   2.339       .  S
O1718     Mg1732   2.141       .  S
O1718      C1729   1.237       .  S
O1719     Mg1738   2.169       .  S
O1720     Mg1732   2.332       .  S
Mg1721     O1737   2.354       .  S
O1722     Mg1738   2.343       .  S
H1723      C1728   1.081       .  S
O1724     Mg1732   2.192       .  S
O1724      C1727   1.241       .  S
H1725      C1727   1.078       .  S
H1726      C1729   1.081       .  S
O1731     Mg1738   2.296       .  S
C1734      O1739   1.277       .  A
O1735      C1736   1.272       .  A
C1741      C1742   1.427       .  A
C1741      C1746   1.412       .  A
C1742      C1743   1.427       .  A
C1742      H1747   1.083       .  S
C1743      C1744   1.395       .  A
C1744      C1745   1.384       .  A
C1744      H1748   1.087       .  S
C1745      C1746   1.386       .  A
C1745      C3224   1.478       .  S
C1746      H1749   1.085       .  S
C1750      C1751   1.408       .  A
C1750      C1755   1.389       .  A
C1750      C3221   1.466       .  S
C1751      C1752   1.399       .  A
C1751      H1756   1.084       .  S
C1752      C1753   1.399       .  A
C1752      C3207   1.475       .  S
C1753      C1754   1.394       .  A
C1753      H1757   1.085       .  S
C1754      C1755   1.396       .  A
C1754      C3193   1.469       .  S
C1755      H1758   1.085       .  S
C1759      C1760   1.408       .  A
C1759      C1764   1.408       .  A
C1759      C1890   1.480       .  S
C1760      C1761   1.417       .  A
C1760      H1765   1.075       .  S
C1761      C1762   1.403       .  A
C1761      C3196   1.522       .  S
C1762      C1763   1.394       .  A
C1762      H1766   1.072       .  S
C1763      C1764   1.410       .  A
C1763      C2024   1.475       .  S
C1764      H1767   1.082       .  S
C1768      C1769   1.424       .  A
C1768      C1773   1.409       .  A
C1769      C1770   1.420       .  A
C1769      H1774   1.079       .  S
C1770      C1771   1.397       .  A
C1771      C1772   1.394       .  A
C1771      H1775   1.085       .  S
C1772      C1773   1.393       .  A
C1772      C3210   1.490       .  S
C1773      H1776   1.083       .  S
C1777      C1778   1.413       .  A
C1777      C1782   1.425       .  A
C1778      C1779   1.388       .  A
C1778      H1783   1.083       .  S
C1779      C1780   1.384       .  A
C1779      C3182   1.480       .  S
C1780      C1781   1.396       .  A
C1780      H1784   1.087       .  S
C1781      C1782   1.419       .  A
C1781      C2394   1.474       .  S
C1782      H1785   1.083       .  S
C1786      C1787   1.382       .  A
C1786      C1791   1.381   1_545  A
C1786      C3151   1.445       .  S
C1787      C1788   1.405       .  A
C1787      H1792   1.083       .  S
C1788      C1789   1.408       .  A
C1788      C3179   1.491       .  S
C1789      C1790   1.405   1_545  A
C1789      H1793   1.080       .  S
C1790      C1791   1.384       .  A
C1790      C3165   1.460       .  S
C1791      H1794   1.086       .  S
C1795      C1796   1.436       .  A
C1795      C1800   1.398       .  A
C1796      C1797   1.436       .  A
C1796      H1801   1.082       .  S
C1797      C1798   1.408       .  A
C1798      C1799   1.380       .  A
C1798      H1802   1.084       .  S
C1799      C1800   1.381       .  A
C1799      C3168   1.475       .  S
C1800      H1803   1.087       .  S
C1804      C1805   1.429   1_545  A
C1804      C1809   1.389       .  A
C1804      C2262   1.482       .  S
C1805      C1806   1.428       .  A
C1805      H1810   1.081       .  S
C1806      C1807   1.393       .  A
C1807      C1808   1.387   1_565  A
C1807      H1811   1.086       .  S
C1808      C1809   1.373       .  A
C1808      C3154   1.450       .  S
C1809      H1812   1.085       .  S
C1813      C1814   1.426       .  A
C1813      C1818   1.395       .  A
C1814      C1815   1.427       .  A
C1814      H1819   1.083       .  S
C1815      C1816   1.417       .  A
C1816      C1817   1.383       .  A
C1816      H1820   1.083       .  S
C1817      C1818   1.379       .  A
C1817      C3137   1.490       .  S
C1818      H1821   1.087       .  S
C1822      C1823   1.424       .  A
C1822      C1827   1.397       .  A
C1822      C1866   1.476       .  S
C1823      C1824   1.423       .  A
C1823      H1828   1.082       .  S
C1824      C1825   1.416       .  A
C1825      C1826   1.390       .  A
C1825      H1829   1.084       .  S
C1826      C1827   1.387       .  A
C1826      C3123   1.484       .  S
C1827      H1830   1.086       .  S
C1831      C1832   1.403       .  A
C1831      C1836   1.404       .  A
C1831      C3126   1.485       .  S
C1832      C1833   1.408       .  A
C1832      H1837   1.084       .  S
C1833      C1834   1.396       .  A
C1833      C3140   1.485       .  S
C1834      C1835   1.396       .  A
C1834      H1838   1.085       .  S
C1835      C1836   1.395       .  A
C1835      C3109   1.479       .  S
C1836      H1839   1.085       .  S
C1840      C1841   1.401       .  A
C1840      C1845   1.421       .  A
C1841      C1842   1.384       .  A
C1841      H1846   1.086       .  S
C1842      C1843   1.382       .  A
C1842      C3112   1.477       .  S
C1843      C1844   1.414       .  A
C1843      H1847   1.086       .  S
C1844      C1845   1.413       .  A
C1844      C2658   1.485       .  S
C1845      H1848   1.082       .  S
O1849     Mg1851   2.228       .  S
O1849     Mg1857   2.174       .  S
O1849      C1884   1.236       .  S
C1850      H1889   1.081       .  S
C1850      O1863   1.239       .  S
C1850      O1887   1.272       .  A
Mg1851     O1880   2.150       .  S
Mg1851     O1895   2.368       .  S
Mg1851     O1891   2.366       .  S
Mg1851     O1862   2.321       .  S
O1852     Mg1894   2.128       .  S
O1852     Mg1877   2.156       .  S
O1852      C1873   1.241       .  S
O1853      C1884   1.277       .  A
O1853     Mg1877   2.350       .  S
C1854      O1856   1.274       .  A
C1854      O1868   1.285       .  A
O1855      C1883   1.271       .  A
O1855     Mg1857   2.301       .  S
O1856     Mg1888   2.220       .  S
Mg1857     O1863   2.153       .  S
Mg1857     O1871   2.208       .  S
Mg1857     O1859   2.316       .  S
C1858      O1896   1.277       .  A
C1858      O1864   1.260       .  A
O1859      C1866   1.273       .  A
H1860      C1873   1.081       .  S
C1861      H1886   1.081       .  S
C1861      O1875   1.237       .  S
C1861      O1876   1.268       .  A
O1862      C1885   1.273       .  A
O1863     Mg1877   2.170       .  S
O1864     Mg1894   2.275       .  S
C1865      C2076   1.510       .  S
C1865      O1878   1.262       .  A
C1865      O1870   1.281       .  A
C1866      O1893   1.272       .  A
Mg1867     O1874   2.161       .  S
Mg1867     O1875   2.131       .  S
Mg1867     O1868   2.422       .  S
Mg1867     O1869   2.346       .  S
Mg1867     O1896   2.346       .  S
O1869      C1873   1.279       .  A
O1870     Mg1877   2.431       .  S
O1871      C1890   1.268       .  A
O1872      C1892   1.272       .  A
O1872     Mg1888   2.319       .  S
O1874     Mg1888   2.145       .  S
O1874      C1885   1.235       .  S
O1875     Mg1894   2.126       .  S
O1876     Mg1888   2.282       .  S
Mg1877     O1893   2.295       .  S
O1878     Mg1894   2.173       .  S
H1879      C1884   1.081       .  S
O1880     Mg1888   2.167       .  S
O1880      C1883   1.237       .  S
H1881      C1883   1.081       .  S
H1882      C1885   1.081       .  S
O1887     Mg1894   2.294       .  S
C1890      O1895   1.278       .  A
O1891      C1892   1.280       .  A
C1892      C1972   1.489       .  S
O1897     Mg1899   2.185       .  S
O1897     Mg1905   2.163   1_455  S
O1897      C1932   1.245       .  S
C1898      H1937   1.081       .  S
C1898      O1911   1.238       .  S
C1898      O1935   1.276       .  A
Mg1899     O1928   2.141       .  S
Mg1899     O1943   2.325       .  S
Mg1899     O1939   2.300       .  S
Mg1899     O1910   2.312       .  S
O1900     Mg1942   2.159       .  S
O1900     Mg1925   2.148       .  S
O1900      C1921   1.238   1_655  S
O1901      C1932   1.277       .  A
O1901     Mg1925   2.307   1_455  S
C1902      O1904   1.271       .  A
C1902      O1916   1.271       .  A
O1903      C1931   1.277   1_655  A
O1903     Mg1905   2.334       .  S
O1904     Mg1936   2.303       .  S
Mg1905     O1911   2.174       .  S
Mg1905     O1919   2.333       .  S
Mg1905     O1907   2.371       .  S
C1906      O1944   1.269       .  A
C1906      O1912   1.284   1_455  A
O1907      C1914   1.279       .  A
H1908      C1921   1.081       .  S
C1909      H1934   1.081       .  S
C1909      O1923   1.240   1_655  S
C1909      O1924   1.277   1_655  A
O1910      C1933   1.274       .  A
O1911     Mg1925   2.139       .  S
O1912     Mg1942   2.408       .  S
C1913      C2058   1.467       .  S
C1913      O1926   1.276       .  A
C1913      O1918   1.274       .  A
C1914      O1941   1.272       .  A
Mg1915     O1922   2.144       .  S
Mg1915     O1923   2.157       .  S
Mg1915     O1916   2.319       .  S
Mg1915     O1917   2.288       .  S
Mg1915     O1944   2.209       .  S
O1917      C1921   1.270       .  A
O1918     Mg1925   2.337       .  S
O1919      C1938   1.274   1_655  A
O1920      C1940   1.275       .  A
O1920     Mg1936   2.350       .  S
O1922     Mg1936   2.134       .  S
O1922      C1933   1.238       .  S
O1923     Mg1942   2.162   1_455  S
O1924     Mg1936   2.325       .  S
Mg1925     O1941   2.265       .  S
O1926     Mg1942   2.310       .  S
H1927      C1932   1.081       .  S
O1928     Mg1936   2.152       .  S
O1928      C1931   1.239       .  S
H1929      C1931   1.081       .  S
H1930      C1933   1.081       .  S
O1935     Mg1942   2.331       .  S
C1938      C2307   1.484       .  S
C1938      O1943   1.271       .  A
O1939      C1940   1.274       .  A
C1940      C1963   1.479       .  S
C1945      C1946   1.410       .  A
C1945      C1950   1.411   1_455  A
C1945      C2022   1.481       .  S
C1946      C1947   1.413   1_455  A
C1946      H1951   1.077       .  S
C1947      C1948   1.395       .  A
C1948      C1949   1.409       .  A
C1948      H1952   1.083       .  S
C1949      C1950   1.409       .  A
C1949      C3095   1.526       .  S
C1950      H1953   1.070       .  S
C1954      C1955   1.392       .  A
C1954      C1959   1.398       .  A
C1954      C3098   1.473       .  S
C1955      C1956   1.405       .  A
C1955      H1960   1.084       .  S
C1956      C1957   1.401       .  A
C1956      C3084   1.469       .  S
C1957      C1958   1.401   1_655  A
C1957      H1961   1.084   1_655  S
C1958      C1959   1.384   1_455  A
C1958      C3070   1.466       .  S
C1959      H1962   1.085   1_655  S
C1963      C1964   1.429       .  A
C1963      C1968   1.390       .  A
C1964      C1965   1.431       .  A
C1964      H1969   1.082       .  S
C1965      C1966   1.411       .  A
C1965      C2405   1.502       .  S
C1966      C1967   1.384       .  A
C1966      H1970   1.082       .  S
C1967      C1968   1.385       .  A
C1967      C3067   1.477       .  S
C1968      H1971   1.087       .  S
C1972      C1973   1.430       .  A
C1972      C1977   1.399       .  A
C1973      C1974   1.431       .  A
C1973      H1978   1.081       .  S
C1974      C1975   1.409       .  A
C1975      C1976   1.386       .  A
C1975      H1979   1.084       .  S
C1976      C1977   1.390       .  A
C1976      C3081   1.480       .  S
C1977      H1980   1.086       .  S
O1981     Mg1983   2.156   1_455  S
O1981     Mg1989   2.132       .  S
O1981      C2016   1.240       .  S
C1982      H2021   1.081       .  S
C1982      O1995   1.239       .  S
C1982      O2019   1.279       .  A
Mg1983     O2012   2.136       .  S
Mg1983     O2027   2.231       .  S
Mg1983     O2023   2.241       .  S
Mg1983     O1994   2.303       .  S
O1984     Mg2026   2.138       .  S
O1984     Mg2009   2.200       .  S
O1984      C2005   1.242       .  S
O1985      C2016   1.278       .  A
O1985     Mg2009   2.333       .  S
C1986      O1988   1.269       .  A
C1986      O2000   1.271       .  A
O1987      C2015   1.277       .  A
O1987     Mg1989   2.328   1_655  S
O1988     Mg2020   2.304       .  S
Mg1989     O1995   2.170       .  S
Mg1989     O2003   2.377       .  S
Mg1989     O1991   2.280       .  S
C1990      C2047   1.473       .  S
C1990      O2028   1.267       .  A
C1990      O1996   1.282   1_655  A
O1991      C1998   1.270       .  A
H1992      C2005   1.081       .  S
C1993      H2018   1.080       .  S
C1993      O2007   1.240       .  S
C1993      O2008   1.277       .  A
O1994      C2017   1.271       .  A
O1995     Mg2009   2.127       .  S
O1996     Mg2026   2.363       .  S
C1997      C2439   1.504       .  S
C1997      O2010   1.276       .  A
C1997      O2002   1.274       .  A
C1998      O2025   1.277       .  A
Mg1999     O2006   2.150       .  S
Mg1999     O2007   2.136       .  S
Mg1999     O2000   2.319       .  S
Mg1999     O2001   2.342   1_655  S
Mg1999     O2028   2.261       .  S
O2001      C2005   1.281       .  A
O2002     Mg2009   2.325       .  S
O2003      C2022   1.269       .  A
O2004      C2024   1.281       .  A
O2004     Mg2020   2.370       .  S
O2006     Mg2020   2.149       .  S
O2006      C2017   1.237       .  S
O2007     Mg2026   2.188   1_655  S
O2008     Mg2020   2.338       .  S
Mg2009     O2025   2.376       .  S
O2010     Mg2026   2.391       .  S
H2011      C2016   1.081       .  S
O2012     Mg2020   2.131       .  S
O2012      C2015   1.240       .  S
H2013      C2015   1.080       .  S
H2014      C2017   1.081       .  S
O2019     Mg2026   2.348       .  S
C2022      O2027   1.256   1_455  A
O2023      C2024   1.263       .  A
C2029      C2030   1.442       .  A
C2029      C2034   1.409       .  A
C2029      C2526   1.517       .  S
C2030      C2031   1.443       .  A
C2030      H2035   1.082       .  S
C2031      C2032   1.398       .  A
C2032      C2033   1.380       .  A
C2032      H2036   1.087       .  S
C2033      C2034   1.377       .  A
C2033      C3053   1.473       .  S
C2034      H2037   1.083       .  S
C2038      C2039   1.407       .  A
C2038      C2043   1.390       .  A
C2038      C3025   1.485       .  S
C2039      C2040   1.394   1_655  A
C2039      H2044   1.079   1_655  S
C2040      C2041   1.407   1_556  A
C2040      C3056   1.480       .  S
C2041      C2042   1.388   1_455  A
C2041      H2045   1.084       .  S
C2042      C2043   1.394   1_554  A
C2042      C3039   1.460       .  S
C2043      H2046   1.084   1_556  S
C2047      C2048   1.416   1_655  A
C2047      C2052   1.396       .  A
C2048      C2049   1.413       .  A
C2048      H2053   1.083       .  S
C2049      C2050   1.394       .  A
C2050      C2051   1.403   1_455  A
C2050      H2054   1.072       .  S
C2051      C2052   1.404       .  A
C2051      C3028   1.515       .  S
C2052      H2055   1.079       .  S
C2056      C2057   1.424       .  A
C2056      C2061   1.406       .  A
C2057      C2058   1.430       .  A
C2057      H2062   1.081       .  S
C2058      C2059   1.394       .  A
C2059      C2060   1.373       .  A
C2059      H2063   1.087       .  S
C2060      C2061   1.393       .  A
C2060      C3042   1.468       .  S
C2061      H2064   1.086       .  S
C2065      C2066   1.398       .  A
C2065      C2070   1.414       .  A
C2066      C2067   1.387       .  A
C2066      H2071   1.085       .  S
C2067      C2068   1.388       .  A
C2067      C3011   1.469       .  S
C2068      C2069   1.395       .  A
C2068      H2072   1.085       .  S
C2069      C2070   1.418       .  A
C2069      C2432   1.476       .  S
C2070      H2073   1.075       .  S
C2074      C2075   1.433       .  A
C2074      C2079   1.399       .  A
C2074      C2657   1.474       .  S
C2075      C2076   1.429       .  A
C2075      H2080   1.082       .  S
C2076      C2077   1.417       .  A
C2077      C2078   1.386       .  A
C2077      H2081   1.083       .  S
C2078      C2079   1.375       .  A
C2078      C3000   1.476       .  S
C2079      H2082   1.087       .  S
C2083      C2084   1.409       .  A
C2083      C2088   1.441       .  A
C2084      C2085   1.387       .  A
C2084      H2089   1.084       .  S
C2085      C2086   1.378       .  A
C2085      C2986   1.470       .  S
C2086      C2087   1.399       .  A
C2086      H2090   1.087       .  S
C2087      C2088   1.441       .  A
C2088      H2091   1.082       .  S
C2092      C2093   1.407       .  A
C2092      C2097   1.404       .  A
C2092      C3014   1.491       .  S
C2093      C2094   1.402       .  A
C2093      H2098   1.082       .  S
C2094      C2095   1.389       .  A
C2094      C2997   1.462       .  S
C2095      C2096   1.387       .  A
C2095      H2099   1.080       .  S
C2096      C2097   1.396       .  A
C2096      C2983   1.456       .  S
C2097      H2100   1.083       .  S
C2101      C2102   1.400       .  A
C2101      C2106   1.436       .  A
C2102      C2103   1.382       .  A
C2102      H2107   1.085       .  S
C2103      C2104   1.391       .  A
C2103      C2969   1.477       .  S
C2104      C2105   1.410       .  A
C2104      H2108   1.085       .  S
C2105      C2106   1.433       .  A
C2106      H2109   1.082       .  S
C2110      C2111   1.428       .  A
C2110      C2115   1.395       .  A
C2111      C2112   1.432       .  A
C2111      H2116   1.079       .  S
C2112      C2113   1.396       .  A
C2113      C2114   1.382       .  A
C2113      H2117   1.086       .  S
C2114      C2115   1.378       .  A
C2114      C2955   1.463       .  S
C2115      H2118   1.087       .  S
C2119      C2120   1.410       .  A
C2119      C2124   1.435       .  A
C2119      C2190   1.513       .  S
C2120      C2121   1.386       .  A
C2120      H2125   1.084       .  S
C2121      C2122   1.381       .  A
C2121      C2941   1.475       .  S
C2122      C2123   1.400       .  A
C2122      H2126   1.087       .  S
C2123      C2124   1.437       .  A
C2123      C2682   1.485       .  S
C2124      H2127   1.082       .  S
C2128      C2129   1.387       .  A
C2128      C2133   1.395       .  A
C2128      C2972   1.462       .  S
C2129      C2130   1.390       .  A
C2129      H2134   1.075       .  S
C2130      C2131   1.398       .  A
C2130      C2944   1.462       .  S
C2131      C2132   1.403       .  A
C2131      H2135   1.082       .  S
C2132      C2133   1.405       .  A
C2132      C2958   1.489       .  S
C2133      H2136   1.082       .  S
C2137      C2138   1.428       .  A
C2137      C2142   1.398       .  A
C2138      C2139   1.431       .  A
C2138      H2143   1.083       .  S
C2139      C2140   1.411       .  A
C2140      C2141   1.391       .  A
C2140      H2144   1.085       .  S
C2141      C2142   1.381       .  A
C2141      C2927   1.481       .  S
C2142      H2145   1.087       .  S
C2146      C2147   1.408       .  A
C2146      C2151   1.431       .  A
C2147      C2148   1.390       .  A
C2147      H2152   1.084       .  S
C2148      C2149   1.377       .  A
C2148      C2916   1.468       .  S
C2149      C2150   1.395       .  A
C2149      H2153   1.086       .  S
C2150      C2151   1.430       .  A
C2150      C2189   1.478       .  S
C2151      H2154   1.082       .  S
C2155      C2156   1.390       .  A
C2155      C2160   1.396       .  A
C2155      C2899   1.458       .  S
C2156      C2157   1.396       .  A
C2156      H2161   1.085       .  S
C2157      C2158   1.397       .  A
C2157      C2930   1.462       .  S
C2158      C2159   1.402       .  A
C2158      H2162   1.074       .  S
C2159      C2160   1.393       .  A
C2159      C2913   1.474       .  S
C2160      H2163   1.084       .  S
C2164      C2165   1.418       .  A
C2164      C2169   1.402       .  A
C2164      C2684   1.488       .  S
C2165      C2166   1.417       .  A
C2165      H2170   1.082       .  S
C2166      C2167   1.399       .  A
C2167      C2168   1.402       .  A
C2167      H2171   1.076       .  S
C2168      C2169   1.408       .  A
C2168      C2902   1.515       .  S
C2169      H2172   1.082       .  S
O2173     Mg2175   2.167       .  S
O2173     Mg2181   2.190       .  S
O2173      C2208   1.240       .  S
C2174      H2213   1.081       .  S
C2174      O2187   1.236       .  S
C2174      O2211   1.269       .  A
Mg2175     O2204   2.153       .  S
Mg2175     O2219   2.263       .  S
Mg2175     O2215   2.333       .  S
Mg2175     O2186   2.315       .  S
O2176     Mg2218   2.166       .  S
O2176     Mg2201   2.179       .  S
O2176      C2197   1.240       .  S
O2177      C2208   1.275       .  A
O2177     Mg2201   2.311       .  S
C2178      C2296   1.484       .  S
C2178      O2180   1.273       .  A
C2178      O2192   1.279       .  A
O2179      C2207   1.276       .  A
O2179     Mg2181   2.317       .  S
O2180     Mg2212   2.315       .  S
Mg2181     O2187   2.107       .  S
Mg2181     O2195   2.311       .  S
Mg2181     O2183   2.285       .  S
C2182      O2220   1.274       .  A
C2182      O2188   1.273       .  A
O2183      C2190   1.278       .  A
H2184      C2197   1.081       .  S
C2185      H2210   1.081       .  S
C2185      O2199   1.240       .  S
C2185      O2200   1.279       .  A
O2186      C2209   1.274       .  A
O2187     Mg2201   2.150       .  S
O2188     Mg2218   2.274       .  S
C2189      O2202   1.276       .  A
C2189      O2194   1.281       .  A
C2190      O2217   1.279       .  A
Mg2191     O2198   2.156       .  S
Mg2191     O2199   2.173       .  S
Mg2191     O2192   2.329       .  S
Mg2191     O2193   2.315       .  S
Mg2191     O2220   2.338       .  S
O2193      C2197   1.275       .  A
O2194     Mg2201   2.363       .  S
O2195      C2214   1.269       .  A
O2196      C2216   1.280       .  A
O2196     Mg2212   2.379       .  S
O2198     Mg2212   2.130       .  S
O2198      C2209   1.238       .  S
O2199     Mg2218   2.185       .  S
O2200     Mg2212   2.343       .  S
Mg2201     O2217   2.382       .  S
O2202     Mg2218   2.301       .  S
H2203      C2208   1.081       .  S
O2204     Mg2212   2.160       .  S
O2204      C2207   1.241       .  S
H2205      C2207   1.081       .  S
H2206      C2209   1.081       .  S
O2211     Mg2218   2.289       .  S
C2214      O2219   1.275       .  A
O2215      C2216   1.277       .  A
O2221     Mg2223   2.192   1_565  S
O2221     Mg2229   2.157       .  S
O2221      C2256   1.241       .  S
C2222      H2261   1.081   1_565  S
C2222      O2235   1.243       .  S
C2222      O2259   1.280       .  A
Mg2223     O2252   2.121       .  S
Mg2223     O2267   2.329       .  S
Mg2223     O2263   2.381       .  S
Mg2223     O2234   2.333       .  S
O2224     Mg2266   2.126       .  S
O2224     Mg2249   2.150       .  S
O2224      C2245   1.240       .  S
O2225      C2256   1.279       .  A
O2225     Mg2249   2.339       .  S
C2226      C2287   1.492       .  S
C2226      O2228   1.274       .  A
C2226      O2240   1.274       .  A
O2227      C2255   1.276       .  A
O2227     Mg2229   2.331   1_545  S
O2228     Mg2260   2.318       .  S
Mg2229     O2235   2.130       .  S
Mg2229     O2243   2.282       .  S
Mg2229     O2231   2.306       .  S
C2230      C2607   1.469       .  S
C2230      O2268   1.269   1_565  A
C2230      O2236   1.272       .  A
O2231      C2238   1.275       .  A
H2232      C2245   1.080       .  S
C2233      H2258   1.081       .  S
C2233      O2247   1.238       .  S
C2233      O2248   1.272       .  A
O2234      C2257   1.278       .  A
O2235     Mg2249   2.123       .  S
O2236     Mg2266   2.328       .  S
C2237      O2250   1.270       .  A
C2237      O2242   1.272       .  A
C2238      C2334   1.503       .  S
C2238      O2265   1.275       .  A
Mg2239     O2246   2.145       .  S
Mg2239     O2247   2.160       .  S
Mg2239     O2240   2.277       .  S
Mg2239     O2241   2.320   1_545  S
Mg2239     O2268   2.318       .  S
O2241      C2245   1.275       .  A
O2242     Mg2249   2.332       .  S
O2243      C2262   1.264   1_565  A
O2244      C2264   1.270       .  A
O2244     Mg2260   2.309       .  S
O2246     Mg2260   2.159       .  S
O2246      C2257   1.241       .  S
O2247     Mg2266   2.150   1_545  S
O2248     Mg2260   2.305       .  S
Mg2249     O2265   2.351       .  S
O2250     Mg2266   2.300       .  S
H2251      C2256   1.081       .  S
O2252     Mg2260   2.161       .  S
O2252      C2255   1.239       .  S
H2253      C2255   1.081       .  S
H2254      C2257   1.081   1_565  S
O2259     Mg2266   2.335       .  S
C2262      O2267   1.278       .  A
O2263      C2264   1.278       .  A
C2269      C2270   1.413   1_545  A
C2269      C2274   1.393       .  A
C2269      C2358   1.477       .  S
C2270      C2271   1.412       .  A
C2270      H2275   1.083       .  S
C2271      C2272   1.403       .  A
C2272      C2273   1.404   1_565  A
C2272      H2276   1.070       .  S
C2273      C2274   1.407       .  A
C2273      C2885   1.515       .  S
C2274      H2277   1.083       .  S
C2278      C2279   1.392       .  A
C2278      C2283   1.385       .  A
C2278      C2888   1.468       .  S
C2279      C2280   1.423       .  A
C2279      H2284   1.075       .  S
C2280      C2281   1.402       .  A
C2280      C2857   1.505       .  S
C2281      C2282   1.397       .  A
C2281      H2285   1.080       .  S
C2282      C2283   1.381       .  A
C2282      C2871   1.451   1_545  S
C2283      H2286   1.086   1_545  S
C2287      C2288   1.411       .  A
C2287      C2292   1.421       .  A
C2288      C2289   1.394       .  A
C2288      H2293   1.083       .  S
C2289      C2290   1.392       .  A
C2289      C2860   1.489       .  S
C2290      C2291   1.401       .  A
C2290      H2294   1.086       .  S
C2291      C2292   1.416       .  A
C2292      H2295   1.083       .  S
C2296      C2297   1.429       .  A
C2296      C2301   1.396       .  A
C2297      C2298   1.432       .  A
C2297      H2302   1.079       .  S
C2298      C2299   1.392       .  A
C2299      C2300   1.383       .  A
C2299      H2303   1.087       .  S
C2300      C2301   1.376       .  A
C2300      C2874   1.451       .  S
C2301      H2304   1.086       .  S
C2305      C2306   1.425       .  A
C2305      C2310   1.405       .  A
C2306      C2307   1.425       .  A
C2306      H2311   1.083   1_455  S
C2307      C2308   1.400       .  A
C2308      C2309   1.388       .  A
C2308      H2312   1.086       .  S
C2309      C2310   1.404       .  A
C2309      C2843   1.498       .  S
C2310      H2313   1.080       .  S
C2314      C2315   1.399   1_565  A
C2314      C2319   1.379   1_565  A
C2314      C2829   1.458       .  S
C2315      C2316   1.405       .  A
C2315      H2320   1.084       .  S
C2316      C2317   1.418       .  A
C2316      C2846   1.504       .  S
C2317      C2318   1.395       .  A
C2317      H2321   1.080       .  S
C2318      C2319   1.390       .  A
C2318      C2815   1.465   1_455  S
C2319      H2322   1.086   1_445  S
C2323      C2324   1.411       .  A
C2323      C2328   1.399       .  A
C2323      C2346   1.476       .  S
C2324      C2325   1.412       .  A
C2324      H2329   1.083       .  S
C2325      C2326   1.401   1_565  A
C2326      C2327   1.405       .  A
C2326      H2330   1.080       .  S
C2327      C2328   1.401   1_545  A
C2327      C2818   1.517       .  S
C2328      H2331   1.077       .  S
C2332      C2333   1.434       .  A
C2332      C2337   1.391       .  A
C2333      C2334   1.431       .  A
C2333      H2338   1.082       .  S
C2334      C2335   1.402       .  A
C2335      C2336   1.386       .  A
C2335      H2339   1.086       .  S
C2336      C2337   1.370       .  A
C2336      C2832   1.453       .  S
C2337      H2340   1.087       .  S
O2341     Mg2343   2.118       .  S
O2341     Mg2349   2.151       .  S
O2341      C2376   1.236       .  S
C2342      H2381   1.081       .  S
C2342      O2355   1.245       .  S
C2342      O2379   1.281   1_545  A
Mg2343     O2372   2.151       .  S
Mg2343     O2387   2.316       .  S
Mg2343     O2383   2.176       .  S
Mg2343     O2354   2.305       .  S
O2344     Mg2386   2.122       .  S
O2344     Mg2369   2.161       .  S
O2344      C2365   1.237       .  S
O2345      C2376   1.268   1_565  A
O2345     Mg2369   2.287       .  S
C2346      O2348   1.279   1_565  A
C2346      O2360   1.278       .  A
O2347      C2375   1.277       .  A
O2347     Mg2349   2.336       .  S
O2348     Mg2380   2.264       .  S
Mg2349     O2355   2.161       .  S
Mg2349     O2363   2.345       .  S
Mg2349     O2351   2.340       .  S
C2350      O2388   1.275       .  A
C2350      O2356   1.278       .  A
O2351      C2358   1.278       .  A
H2352      C2365   1.081       .  S
C2353      H2378   1.082       .  S
C2353      O2367   1.232       .  S
C2353      O2368   1.268   1_565  A
O2354      C2377   1.274   1_545  A
O2355     Mg2369   2.169   1_545  S
O2356     Mg2386   2.350       .  S
C2357      O2370   1.274       .  A
C2357      O2362   1.270       .  A
C2358      O2385   1.273   1_545  A
Mg2359     O2366   2.211       .  S
Mg2359     O2367   2.164       .  S
Mg2359     O2360   2.346       .  S
Mg2359     O2361   2.318       .  S
Mg2359     O2388   2.351       .  S
O2361      C2365   1.274       .  A
O2362     Mg2369   2.314       .  S
O2363      C2382   1.270       .  A
O2364      C2384   1.281       .  A
O2364     Mg2380   2.430       .  S
O2366     Mg2380   2.197   1_565  S
O2366      C2377   1.240       .  S
O2367     Mg2386   2.175       .  S
O2368     Mg2380   2.309       .  S
Mg2369     O2385   2.269       .  S
O2370     Mg2386   2.329       .  S
H2371      C2376   1.081       .  S
O2372     Mg2380   2.167       .  S
O2372      C2375   1.239       .  S
H2373      C2375   1.081       .  S
H2374      C2377   1.081       .  S
O2379     Mg2386   2.334       .  S
C2382      O2387   1.269       .  A
O2383      C2384   1.263       .  A
O2389     Mg2391   2.159       .  S
O2389     Mg2397   2.188       .  S
O2389      C2424   1.240       .  S
C2390      H2429   1.081       .  S
C2390      O2403   1.242       .  S
C2390      O2427   1.281       .  A
Mg2391     O2420   2.160       .  S
Mg2391     O2435   2.230       .  S
Mg2391     O2431   2.313       .  S
Mg2391     O2402   2.308       .  S
O2392     Mg2434   2.138       .  S
O2392     Mg2417   2.192       .  S
O2392      C2413   1.238       .  S
O2393      C2424   1.277       .  A
O2393     Mg2417   2.327       .  S
C2394      O2396   1.265       .  A
C2394      O2408   1.281       .  A
O2395      C2423   1.267       .  A
O2395     Mg2397   2.296       .  S
O2396     Mg2428   2.229       .  S
Mg2397     O2403   2.164       .  S
Mg2397     O2411   2.351       .  S
Mg2397     O2399   2.310       .  S
C2398      O2436   1.267       .  A
C2398      O2404   1.284       .  A
O2399      C2406   1.278       .  A
H2400      C2413   1.081       .  S
C2401      H2426   1.081       .  S
C2401      O2415   1.241       .  S
C2401      O2416   1.276       .  A
O2402      C2425   1.271       .  A
O2403     Mg2417   2.121       .  S
O2404     Mg2434   2.364       .  S
C2405      O2418   1.275       .  A
C2405      O2410   1.267       .  A
C2406      O2433   1.274       .  A
Mg2407     O2414   2.117       .  S
Mg2407     O2415   2.151       .  S
Mg2407     O2408   2.377       .  S
Mg2407     O2409   2.336       .  S
Mg2407     O2436   2.260       .  S
O2409      C2413   1.277       .  A
O2410     Mg2417   2.288       .  S
O2411      C2430   1.276       .  A
O2412      C2432   1.264       .  A
O2412     Mg2428   2.286       .  S
O2414     Mg2428   2.134       .  S
O2414      C2425   1.236       .  S
O2415     Mg2434   2.179       .  S
O2416     Mg2428   2.315       .  S
Mg2417     O2433   2.354       .  S
O2418     Mg2434   2.391       .  S
H2419      C2424   1.081       .  S
O2420     Mg2428   2.144       .  S
O2420      C2423   1.234       .  S
H2421      C2423   1.081       .  S
H2422      C2425   1.082       .  S
O2427     Mg2434   2.353       .  S
C2430      C2457   1.497       .  S
C2430      O2435   1.267       .  A
O2431      C2432   1.268       .  A
C2437      C2438   1.437       .  A
C2437      C2442   1.397       .  A
C2437      C2550   1.502       .  S
C2438      C2439   1.438       .  A
C2438      H2443   1.081       .  S
C2439      C2440   1.400       .  A
C2440      C2441   1.380       .  A
C2440      H2444   1.083       .  S
C2441      C2442   1.390       .  A
C2441      C2801   1.478       .  S
C2442      H2445   1.085       .  S
C2446      C2447   1.402       .  A
C2446      C2451   1.411       .  A
C2446      C2787   1.496       .  S
C2447      C2448   1.398       .  A
C2447      H2452   1.084       .  S
C2448      C2449   1.383       .  A
C2448      C2773   1.461       .  S
C2449      C2450   1.395       .  A
C2449      H2453   1.085       .  S
C2450      C2451   1.399       .  A
C2450      C2804   1.472       .  S
C2451      H2454   1.082       .  S
C2455      C2456   1.412       .  A
C2455      C2460   1.400       .  A
C2456      C2457   1.411       .  A
C2456      H2461   1.073       .  S
C2457      C2458   1.407       .  A
C2458      C2459   1.401       .  A
C2458      H2462   1.078       .  S
C2459      C2460   1.390       .  A
C2459      C2790   1.499       .  S
C2460      H2463   1.085       .  S
C2464      C2465   1.439       .  A
C2464      C2469   1.398       .  A
C2465      C2466   1.435       .  A
C2465      H2470   1.082       .  S
C2466      C2467   1.407       .  A
C2467      C2468   1.387       .  A
C2467      H2471   1.085       .  S
C2468      C2469   1.376       .  A
C2468      C2776   1.470       .  S
C2469      H2472   1.088       .  S
C2473      C2474   1.435       .  A
C2473      C2478   1.397       .  A
C2473      C2525   1.491       .  S
C2474      C2475   1.432       .  A
C2474      H2479   1.082       .  S
C2475      C2476   1.390       .  A
C2476      C2477   1.377       .  A
C2476      H2480   1.087       .  S
C2477      C2478   1.373       .  A
C2477      C2762   1.453       .  S
C2478      H2481   1.085       .  S
C2482      C2483   1.438       .  A
C2482      C2487   1.406   1_556  A
C2483      C2484   1.437       .  A
C2483      H2488   1.082       .  S
C2484      C2485   1.402   1_556  A
C2484      C2574   1.496       .  S
C2485      C2486   1.381       .  A
C2485      H2489   1.087       .  S
C2486      C2487   1.380       .  A
C2486      C2748   1.471       .  S
C2487      H2490   1.085       .  S
C2491      C2492   1.387       .  A
C2491      C2496   1.408       .  A
C2491      C2745   1.459       .  S
C2492      C2493   1.381       .  A
C2492      H2497   1.085       .  S
C2493      C2494   1.384   1_554  A
C2493      C2759   1.444       .  S
C2494      C2495   1.401       .  A
C2494      H2498   1.083       .  S
C2495      C2496   1.407   1_556  A
C2495      C2731   1.488       .  S
C2496      H2499   1.081       .  S
C2500      C2501   1.423       .  A
C2500      C2505   1.402       .  A
C2501      C2502   1.426       .  A
C2501      H2506   1.082       .  S
C2502      C2503   1.393       .  A
C2503      C2504   1.382       .  A
C2503      H2507   1.087       .  S
C2504      C2505   1.376       .  A
C2504      C2734   1.463       .  S
C2505      H2508   1.087       .  S
O2509     Mg2511   2.179       .  S
O2509     Mg2517   2.161       .  S
O2509      C2544   1.241       .  S
C2510      H2549   1.081       .  S
C2510      O2523   1.243       .  S
C2510      O2547   1.280       .  A
Mg2511     O2540   2.128       .  S
Mg2511     O2555   2.367       .  S
Mg2511     O2551   2.397       .  S
Mg2511     O2522   2.342       .  S
O2512     Mg2554   2.133       .  S
O2512     Mg2537   2.160       .  S
O2512      C2533   1.236   1_554  S
O2513      C2544   1.277       .  A
O2513     Mg2537   2.322   1_556  S
C2514      O2516   1.271       .  A
C2514      O2528   1.278       .  A
O2515      C2543   1.270       .  A
O2515     Mg2517   2.304       .  S
O2516     Mg2548   2.327       .  S
Mg2517     O2523   2.177   1_556  S
Mg2517     O2531   2.349       .  S
Mg2517     O2519   2.272       .  S
C2518      O2556   1.271       .  A
C2518      O2524   1.278       .  A
O2519      C2526   1.276       .  A
H2520      C2533   1.081       .  S
C2521      H2546   1.081       .  S
C2521      O2535   1.242       .  S
C2521      O2536   1.277   1_554  A
O2522      C2545   1.280       .  A
O2523     Mg2537   2.173       .  S
O2524     Mg2554   2.356       .  S
C2525      O2538   1.273       .  A
C2525      O2530   1.281       .  A
C2526      O2553   1.276       .  A
Mg2527     O2534   2.132       .  S
Mg2527     O2535   2.171   1_556  S
Mg2527     O2528   2.318       .  S
Mg2527     O2529   2.313       .  S
Mg2527     O2556   2.278   1_556  S
O2529      C2533   1.272       .  A
O2530     Mg2537   2.334       .  S
O2531      C2550   1.279       .  A
O2532      C2552   1.262       .  A
O2532     Mg2548   2.279       .  S
O2534     Mg2548   2.148       .  S
O2534      C2545   1.242       .  S
O2535     Mg2554   2.170       .  S
O2536     Mg2548   2.314       .  S
Mg2537     O2553   2.382   1_554  S
O2538     Mg2554   2.320       .  S
H2539      C2544   1.081       .  S
O2540     Mg2548   2.148       .  S
O2540      C2543   1.236       .  S
H2541      C2543   1.081       .  S
H2542      C2545   1.081       .  S
O2547     Mg2554   2.340       .  S
C2550      O2555   1.285       .  A
O2551      C2552   1.276       .  A
C2552      C2634   1.498       .  S
O2557     Mg2559   2.166   1_556  S
O2557     Mg2565   2.130   1_556  S
O2557      C2592   1.237       .  S
C2558      H2597   1.081       .  S
C2558      O2571   1.235       .  S
C2558      O2595   1.268       .  A
Mg2559     O2588   2.188       .  S
Mg2559     O2603   2.446       .  S
Mg2559     O2599   2.237       .  S
Mg2559     O2570   2.312   1_554  S
O2560     Mg2602   2.152       .  S
O2560     Mg2585   2.187       .  S
O2560      C2581   1.243       .  S
O2561      C2592   1.274       .  A
O2561     Mg2585   2.324       .  S
C2562      C2623   1.474       .  S
C2562      O2564   1.276       .  A
C2562      O2576   1.273       .  A
O2563      C2591   1.275       .  A
O2563     Mg2565   2.297       .  S
O2564     Mg2596   2.310   1_556  S
Mg2565     O2571   2.129   1_554  S
Mg2565     O2579   2.209       .  S
Mg2565     O2567   2.343   1_554  S
C2566      O2604   1.269       .  A
C2566      O2572   1.265       .  A
O2567      C2574   1.278       .  A
H2568      C2581   1.081       .  S
C2569      H2594   1.082       .  S
C2569      O2583   1.238       .  S
C2569      O2584   1.275       .  A
O2570      C2593   1.271       .  A
O2571     Mg2585   2.143       .  S
O2572     Mg2602   2.300       .  S
C2573      O2586   1.267       .  A
C2573      O2578   1.286       .  A
C2574      O2601   1.283       .  A
Mg2575     O2582   2.175       .  S
Mg2575     O2583   2.118       .  S
Mg2575     O2576   2.333       .  S
Mg2575     O2577   2.350       .  S
Mg2575     O2604   2.333       .  S
O2577      C2581   1.282       .  A
O2578     Mg2585   2.422       .  S
O2579      C2598   1.269       .  A
O2580      C2600   1.281       .  A
O2580     Mg2596   2.370       .  S
O2582     Mg2596   2.154   1_556  S
O2582      C2593   1.235       .  S
O2583     Mg2602   2.156       .  S
O2584     Mg2596   2.329   1_556  S
Mg2585     O2601   2.364       .  S
O2586     Mg2602   2.188       .  S
H2587      C2592   1.081       .  S
O2588     Mg2596   2.186       .  S
O2588      C2591   1.242       .  S
H2589      C2591   1.081       .  S
H2590      C2593   1.081       .  S
O2595     Mg2602   2.285       .  S
C2598      O2603   1.282       .  A
O2599      C2600   1.276       .  A
C2605      C2606   1.429       .  A
C2605      C2610   1.408   1_565  A
C2606      C2607   1.430       .  A
C2606      H2611   1.082       .  S
C2607      C2608   1.392   1_565  A
C2608      C2609   1.369       .  A
C2608      H2612   1.085       .  S
C2609      C2610   1.388       .  A
C2609      C2720   1.461       .  S
C2610      H2613   1.084       .  S
C2614      C2615   1.389       .  A
C2614      C2619   1.396   1_565  A
C2614      C2717   1.466   1_556  S
C2615      C2616   1.401       .  A
C2615      H2620   1.085       .  S
C2616      C2617   1.395   1_565  A
C2616      C2703   1.470       .  S
C2617      C2618   1.399       .  A
C2617      H2621   1.084       .  S
C2618      C2619   1.392       .  A
C2618      C2689   1.461       .  S
C2619      H2622   1.085       .  S
C2623      C2624   1.425       .  A
C2623      C2628   1.395       .  A
C2624      C2625   1.425       .  A
C2624      H2629   1.083       .  S
C2625      C2626   1.411       .  A
C2626      C2627   1.386       .  A
C2626      H2630   1.084       .  S
C2627      C2628   1.387       .  A
C2627      C2706   1.479       .  S
C2628      H2631   1.086       .  S
C2632      C2633   1.424       .  A
C2632      C2637   1.395       .  A
C2633      C2634   1.424       .  A
C2633      H2638   1.082       .  S
C2634      C2635   1.415       .  A
C2635      C2636   1.383       .  A
C2635      H2639   1.080       .  S
C2636      C2637   1.381       .  A
C2636      C2692   1.479       .  S
C2637      H2640   1.087       .  S
O2641     Mg2643   2.166       .  S
O2641     Mg2649   2.180       .  S
O2641      C2676   1.237       .  S
C2642      H2681   1.081       .  S
C2642      O2655   1.243       .  S
C2642      O2679   1.281       .  A
Mg2643     O2672   2.171       .  S
Mg2643     O2687   2.358       .  S
Mg2643     O2683   2.292       .  S
Mg2643     O2654   2.315       .  S
O2644     Mg2686   2.101       .  S
O2644     Mg2669   2.086       .  S
O2644      C2665   1.240       .  S
O2645      C2676   1.270       .  A
O2645     Mg2669   2.290       .  S
C2646      O2648   1.276       .  A
C2646      O2660   1.271       .  A
O2647      C2675   1.273       .  A
O2647     Mg2649   2.320       .  S
O2648     Mg2680   2.333       .  S
Mg2649     O2655   2.169       .  S
Mg2649     O2663   2.322       .  S
Mg2649     O2651   2.423       .  S
C2650      O2688   1.279       .  A
C2650      O2656   1.268       .  A
O2651      C2658   1.282       .  A
H2652      C2665   1.081       .  S
C2653      H2678   1.081       .  S
C2653      O2667   1.237       .  S
C2653      O2668   1.273       .  A
O2654      C2677   1.275       .  A
O2655     Mg2669   2.149       .  S
O2656     Mg2686   2.319       .  S
C2657      O2670   1.267       .  A
C2657      O2662   1.264       .  A
C2658      O2685   1.254       .  A
Mg2659     O2666   2.191       .  S
Mg2659     O2667   2.123       .  S
Mg2659     O2660   2.317       .  S
Mg2659     O2661   2.303       .  S
Mg2659     O2688   2.326       .  S
O2661      C2665   1.274       .  A
O2662     Mg2669   2.320       .  S
O2663      C2682   1.277       .  A
O2664      C2684   1.280       .  A
O2664     Mg2680   2.362       .  S
O2666     Mg2680   2.171       .  S
O2666      C2677   1.240       .  S
O2667     Mg2686   2.124       .  S
O2668     Mg2680   2.318       .  S
Mg2669     O2685   2.103       .  S
O2670     Mg2686   2.309       .  S
H2671      C2676   1.081       .  S
O2672     Mg2680   2.199       .  S
O2672      C2675   1.236       .  S
H2673      C2675   1.081       .  S
H2674      C2677   1.081       .  S
O2679     Mg2686   2.344       .  S
C2682      O2687   1.279       .  A
O2683      C2684   1.276       .  A
C2689      C2690   1.404       .  A
C2689      C2694   1.406       .  A
C2690      C2691   1.394       .  A
C2690      C2695   1.457       .  S
C2691      C2692   1.423       .  A
C2691      C2698   1.453       .  S
C2692      C2693   1.413       .  A
C2693      C2694   1.409       .  A
C2693      C2696   1.449       .  S
C2694      C2697   1.448       .  S
C2695      N2702   1.157       .  T
C2696      N2701   1.157       .  T
C2697      N2699   1.157   1_545  T
C2698      N2700   1.157       .  T
C2703      C2704   1.407       .  A
C2703      C2708   1.407       .  A
C2704      C2705   1.397       .  A
C2704      C2709   1.455   1_565  S
C2705      C2706   1.420       .  A
C2705      C2712   1.454       .  S
C2706      C2707   1.412       .  A
C2707      C2708   1.405       .  A
C2707      C2710   1.447       .  S
C2708      C2711   1.451       .  S
C2709      N2716   1.157       .  T
C2710      N2715   1.156       .  T
C2711      N2713   1.157       .  T
C2712      N2714   1.157       .  T
C2717      C2718   1.406       .  A
C2717      C2722   1.413   1_565  A
C2718      C2719   1.398       .  A
C2718      C2723   1.451       .  S
C2719      C2720   1.414   1_565  A
C2719      C2726   1.453       .  S
C2720      C2721   1.398       .  A
C2721      C2722   1.400       .  A
C2721      C2724   1.448       .  S
C2722      C2725   1.448       .  S
C2723      N2730   1.157       .  T
C2724      N2729   1.157       .  T
C2725      N2727   1.157       .  T
C2726      N2728   1.157       .  T
C2731      C2732   1.422       .  A
C2731      C2736   1.425       .  A
C2732      C2733   1.388       .  A
C2732      C2737   1.454       .  S
C2733      C2734   1.400       .  A
C2733      C2740   1.454       .  S
C2734      C2735   1.404       .  A
C2735      C2736   1.409       .  A
C2735      C2738   1.451       .  S
C2736      C2739   1.449       .  S
C2737      N2744   1.157   1_556  T
C2738      N2743   1.157       .  T
C2739      N2741   1.158       .  T
C2740      N2742   1.157       .  T
C2745      C2746   1.411       .  A
C2745      C2750   1.407       .  A
C2746      C2747   1.408       .  A
C2746      C2751   1.450       .  S
C2747      C2748   1.407       .  A
C2747      C2754   1.446       .  S
C2748      C2749   1.420   1_554  A
C2749      C2750   1.386   1_556  A
C2749      C2752   1.453       .  S
C2750      C2753   1.459   1_554  S
C2751      N2758   1.157       .  T
C2752      N2757   1.158       .  T
C2753      N2755   1.158       .  T
C2754      N2756   1.157       .  T
C2759      C2760   1.399       .  A
C2759      C2764   1.413       .  A
C2760      C2761   1.396       .  A
C2760      C2765   1.452       .  S
C2761      C2762   1.420       .  A
C2761      C2768   1.454       .  S
C2762      C2763   1.401       .  A
C2763      C2764   1.392       .  A
C2763      C2766   1.452       .  S
C2764      C2767   1.454       .  S
C2765      N2772   1.157   1_554  T
C2766      N2771   1.157       .  T
C2767      N2769   1.157       .  T
C2768      N2770   1.158       .  T
C2773      C2774   1.399       .  A
C2773      C2778   1.410       .  A
C2774      C2775   1.397       .  A
C2774      C2779   1.452       .  S
C2775      C2776   1.421       .  A
C2775      C2782   1.452       .  S
C2776      C2777   1.403       .  A
C2777      C2778   1.404       .  A
C2777      C2780   1.449       .  S
C2778      C2781   1.448       .  S
C2779      N2786   1.157       .  T
C2780      N2785   1.157       .  T
C2781      N2783   1.157       .  T
C2782      N2784   1.157       .  T
C2787      C2788   1.421       .  A
C2787      C2792   1.405       .  A
C2788      C2789   1.406       .  A
C2788      C2793   1.440       .  S
C2789      C2790   1.410       .  A
C2789      C2796   1.449       .  S
C2790      C2791   1.427       .  A
C2791      C2792   1.398       .  A
C2791      C2794   1.443       .  S
C2792      C2795   1.447       .  S
C2793      N2800   1.155       .  T
C2794      N2799   1.155       .  T
C2795      N2797   1.157       .  T
C2796      N2798   1.157       .  T
C2801      C2802   1.416       .  A
C2801      C2806   1.411       .  A
C2802      C2803   1.402       .  A
C2802      C2807   1.453       .  S
C2803      C2804   1.410       .  A
C2803      C2810   1.453       .  S
C2804      C2805   1.411       .  A
C2805      C2806   1.401       .  A
C2805      C2808   1.449       .  S
C2806      C2809   1.453       .  S
C2807      N2814   1.158       .  T
C2808      N2813   1.157       .  T
C2809      N2811   1.157       .  T
C2810      N2812   1.157       .  T
C2815      C2816   1.402       .  A
C2815      C2820   1.394       .  A
C2816      C2817   1.404       .  A
C2816      C2821   1.453   1_655  S
C2817      C2818   1.427       .  A
C2817      C2824   1.452       .  S
C2818      C2819   1.437       .  A
C2819      C2820   1.408       .  A
C2819      C2822   1.443       .  S
C2820      C2823   1.455       .  S
C2821      N2828   1.157       .  T
C2822      N2827   1.155       .  T
C2823      N2825   1.157       .  T
C2824      N2826   1.157   1_545  T
C2829      C2830   1.407       .  A
C2829      C2834   1.408       .  A
C2830      C2831   1.394       .  A
C2830      C2835   1.450       .  S
C2831      C2832   1.409       .  A
C2831      C2838   1.454       .  S
C2832      C2833   1.404       .  A
C2833      C2834   1.400       .  A
C2833      C2836   1.449       .  S
C2834      C2837   1.449       .  S
C2835      N2842   1.156       .  T
C2836      N2841   1.157       .  T
C2837      N2839   1.157       .  T
C2838      N2840   1.157       .  T
C2843      C2844   1.429       .  A
C2843      C2848   1.406       .  A
C2844      C2845   1.400       .  A
C2844      C2849   1.443       .  S
C2845      C2846   1.407       .  A
C2845      C2852   1.449       .  S
C2846      C2847   1.428       .  A
C2847      C2848   1.405       .  A
C2847      C2850   1.437       .  S
C2848      C2851   1.449       .  S
C2849      N2856   1.155       .  T
C2850      N2855   1.153       .  T
C2851      N2853   1.157       .  T
C2852      N2854   1.157       .  T
C2857      C2858   1.412       .  A
C2857      C2862   1.398       .  A
C2858      C2859   1.414       .  A
C2858      C2863   1.444       .  S
C2859      C2860   1.417       .  A
C2859      C2866   1.447       .  S
C2860      C2861   1.421       .  A
C2861      C2862   1.400       .  A
C2861      C2864   1.444       .  S
C2862      C2865   1.450       .  S
C2863      N2870   1.156       .  T
C2864      N2869   1.154       .  T
C2865      N2867   1.157       .  T
C2866      N2868   1.157       .  T
C2871      C2872   1.410       .  A
C2871      C2876   1.403       .  A
C2872      C2873   1.398       .  A
C2872      C2877   1.451       .  S
C2873      C2874   1.402       .  A
C2873      C2880   1.448       .  S
C2874      C2875   1.410       .  A
C2875      C2876   1.395       .  A
C2875      C2878   1.453       .  S
C2876      C2879   1.449       .  S
C2877      N2884   1.157   1_565  T
C2878      N2883   1.157       .  T
C2879      N2881   1.156       .  T
C2880      N2882   1.156       .  T
C2885      C2886   1.424       .  A
C2885      C2890   1.432       .  A
C2886      C2887   1.393       .  A
C2886      C2891   1.453       .  S
C2887      C2888   1.400       .  A
C2887      C2894   1.455       .  S
C2888      C2889   1.403       .  A
C2889      C2890   1.413       .  A
C2889      C2892   1.453       .  S
C2890      C2893   1.445       .  S
C2891      N2898   1.156       .  T
C2892      N2897   1.157       .  T
C2893      N2895   1.158   1_545  T
C2894      N2896   1.157       .  T
C2899      C2900   1.396       .  A
C2899      C2904   1.396       .  A
C2900      C2901   1.405       .  A
C2900      C2905   1.455       .  S
C2901      C2902   1.429       .  A
C2901      C2908   1.439       .  S
C2902      C2903   1.428       .  A
C2903      C2904   1.401       .  A
C2903      C2906   1.439       .  S
C2904      C2907   1.456       .  S
C2905      N2912   1.157       .  T
C2906      N2911   1.152       .  T
C2907      N2909   1.157       .  T
C2908      N2910   1.154       .  T
C2913      C2914   1.408       .  A
C2913      C2918   1.413       .  A
C2914      C2915   1.396       .  A
C2914      C2919   1.454       .  S
C2915      C2916   1.419       .  A
C2915      C2922   1.454       .  S
C2916      C2917   1.403       .  A
C2917      C2918   1.404       .  A
C2917      C2920   1.449       .  S
C2918      C2921   1.448       .  S
C2919      N2926   1.158       .  T
C2920      N2925   1.157       .  T
C2921      N2923   1.156       .  T
C2922      N2924   1.157       .  T
C2927      C2928   1.421       .  A
C2927      C2932   1.413       .  A
C2928      C2929   1.385       .  A
C2928      C2933   1.452       .  S
C2929      C2930   1.404       .  A
C2929      C2936   1.458       .  S
C2930      C2931   1.408       .  A
C2931      C2932   1.413       .  A
C2931      C2934   1.444       .  S
C2932      C2935   1.448       .  S
C2933      N2940   1.158       .  T
C2934      N2939   1.156       .  T
C2935      N2937   1.157       .  T
C2936      N2938   1.157       .  T
C2941      C2942   1.420       .  A
C2941      C2946   1.409       .  A
C2942      C2943   1.389       .  A
C2942      C2947   1.453       .  S
C2943      C2944   1.405       .  A
C2943      C2950   1.458       .  S
C2944      C2945   1.408       .  A
C2945      C2946   1.411       .  A
C2945      C2948   1.445       .  S
C2946      C2949   1.448       .  S
C2947      N2954   1.158       .  T
C2948      N2953   1.156       .  T
C2949      N2951   1.157       .  T
C2950      N2952   1.158       .  T
C2955      C2956   1.403       .  A
C2955      C2960   1.405       .  A
C2956      C2957   1.397       .  A
C2956      C2961   1.454       .  S
C2957      C2958   1.422       .  A
C2957      C2964   1.450       .  S
C2958      C2959   1.424       .  A
C2959      C2960   1.404       .  A
C2959      C2962   1.451       .  S
C2960      C2963   1.454       .  S
C2961      N2968   1.157       .  T
C2962      N2967   1.157       .  T
C2963      N2965   1.157       .  T
C2964      N2966   1.156       .  T
C2969      C2970   1.414       .  A
C2969      C2974   1.408       .  A
C2970      C2971   1.389       .  A
C2970      C2975   1.453       .  S
C2971      C2972   1.408       .  A
C2971      C2978   1.455       .  S
C2972      C2973   1.408       .  A
C2973      C2974   1.411       .  A
C2973      C2976   1.449       .  S
C2974      C2977   1.441       .  S
C2975      N2982   1.157       .  T
C2976      N2981   1.157       .  T
C2977      N2979   1.154       .  T
C2978      N2980   1.157       .  T
C2983      C2984   1.403       .  A
C2983      C2988   1.409       .  A
C2984      C2985   1.383       .  A
C2984      C2989   1.458       .  S
C2985      C2986   1.418       .  A
C2985      C2992   1.453       .  S
C2986      C2987   1.410       .  A
C2987      C2988   1.411       .  A
C2987      C2990   1.448       .  S
C2988      C2991   1.447       .  S
C2989      N2996   1.157       .  T
C2990      N2995   1.157       .  T
C2991      N2993   1.157       .  T
C2992      N2994   1.158       .  T
C2997      C2998   1.410       .  A
C2997      C3002   1.408       .  A
C2998      C2999   1.412       .  A
C2998      C3003   1.447       .  S
C2999      C3000   1.409       .  A
C2999      C3006   1.448       .  S
C3000      C3001   1.420       .  A
C3001      C3002   1.386       .  A
C3001      C3004   1.453       .  S
C3002      C3005   1.460       .  S
C3003      N3010   1.157       .  T
C3004      N3009   1.158       .  T
C3005      N3007   1.158       .  T
C3006      N3008   1.157       .  T
C3011      C3012   1.406       .  A
C3011      C3016   1.405       .  A
C3012      C3013   1.400       .  A
C3012      C3017   1.456       .  S
C3013      C3014   1.423       .  A
C3013      C3020   1.452       .  S
C3014      C3015   1.424       .  A
C3015      C3016   1.405       .  A
C3015      C3018   1.451       .  S
C3016      C3019   1.453       .  S
C3017      N3024   1.157       .  T
C3018      N3023   1.158       .  T
C3019      N3021   1.157       .  T
C3020      N3022   1.157       .  T
C3025      C3026   1.396       .  A
C3025      C3030   1.411       .  A
C3026      C3027   1.399       .  A
C3026      C3031   1.453       .  S
C3027      C3028   1.429       .  A
C3027      C3034   1.448       .  S
C3028      C3029   1.433       .  A
C3029      C3030   1.407       .  A
C3029      C3032   1.447       .  S
C3030      C3033   1.456       .  S
C3031      N3038   1.157       .  T
C3032      N3037   1.157       .  T
C3033      N3035   1.157   1_556  T
C3034      N3036   1.156       .  T
C3039      C3040   1.411       .  A
C3039      C3044   1.404       .  A
C3040      C3041   1.406       .  A
C3040      C3045   1.448   1_655  S
C3041      C3042   1.403       .  A
C3041      C3048   1.448       .  S
C3042      C3043   1.416       .  A
C3043      C3044   1.393       .  A
C3043      C3046   1.454       .  S
C3044      C3047   1.450       .  S
C3045      N3052   1.157       .  T
C3046      N3051   1.157       .  T
C3047      N3049   1.156       .  T
C3048      N3050   1.157       .  T
C3053      C3054   1.408       .  A
C3053      C3058   1.411       .  A
C3054      C3055   1.414       .  A
C3054      C3059   1.447       .  S
C3055      C3056   1.424       .  A
C3055      C3062   1.448       .  S
C3056      C3057   1.402       .  A
C3057      C3058   1.376       .  A
C3057      C3060   1.446       .  S
C3058      C3061   1.451       .  S
C3059      N3066   1.156       .  T
C3060      N3065   1.155   1_556  T
C3061      N3063   1.158   1_556  T
C3062      N3064   1.157       .  T
C3067      C3068   1.418       .  A
C3067      C3072   1.411       .  A
C3068      C3069   1.400       .  A
C3068      C3073   1.453       .  S
C3069      C3070   1.406       .  A
C3069      C3076   1.451       .  S
C3070      C3071   1.408       .  A
C3071      C3072   1.405       .  A
C3071      C3074   1.450       .  S
C3072      C3075   1.450       .  S
C3073      N3080   1.158       .  T
C3074      N3079   1.157   1_455  T
C3075      N3077   1.157       .  T
C3076      N3078   1.157       .  T
C3081      C3082   1.420       .  A
C3081      C3086   1.410       .  A
C3082      C3083   1.398       .  A
C3082      C3087   1.454       .  S
C3083      C3084   1.404       .  A
C3083      C3090   1.452       .  S
C3084      C3085   1.407       .  A
C3085      C3086   1.410       .  A
C3085      C3088   1.449       .  S
C3086      C3089   1.447       .  S
C3087      N3094   1.157       .  T
C3088      N3093   1.157       .  T
C3089      N3091   1.156       .  T
C3090      N3092   1.156   1_655  T
C3095      C3096   1.434       .  A
C3095      C3100   1.424       .  A
C3096      C3097   1.419       .  A
C3096      C3101   1.444       .  S
C3097      C3098   1.407       .  A
C3097      C3104   1.454       .  S
C3098      C3099   1.394       .  A
C3099      C3100   1.392       .  A
C3099      C3102   1.454       .  S
C3100      C3103   1.447       .  S
C3101      N3108   1.158       .  T
C3102      N3107   1.157       .  T
C3103      N3105   1.154       .  T
C3104      N3106   1.157       .  T
C3109      C3110   1.409       .  A
C3109      C3114   1.416       .  A
C3110      C3111   1.409       .  A
C3110      C3115   1.450       .  S
C3111      C3112   1.409       .  A
C3111      C3118   1.444       .  S
C3112      C3113   1.411       .  A
C3113      C3114   1.399       .  A
C3113      C3116   1.455       .  S
C3114      C3117   1.453       .  S
C3115      N3122   1.157       .  T
C3116      N3121   1.158       .  T
C3117      N3119   1.157       .  T
C3118      N3120   1.155       .  T
C3123      C3124   1.412       .  A
C3123      C3128   1.416       .  A
C3124      C3125   1.414       .  A
C3124      C3129   1.449       .  S
C3125      C3126   1.412       .  A
C3125      C3132   1.449       .  S
C3126      C3127   1.414       .  A
C3127      C3128   1.400       .  A
C3127      C3130   1.454       .  S
C3128      C3131   1.455       .  S
C3129      N3136   1.157       .  T
C3130      N3135   1.157       .  T
C3131      N3133   1.157       .  T
C3132      N3134   1.157       .  T
C3137      C3138   1.409       .  A
C3137      C3142   1.422       .  A
C3138      C3139   1.412       .  A
C3138      C3143   1.448       .  S
C3139      C3140   1.415       .  A
C3139      C3146   1.448       .  S
C3140      C3141   1.413       .  A
C3141      C3142   1.400       .  A
C3141      C3144   1.455       .  S
C3142      C3145   1.453       .  S
C3143      N3150   1.156       .  T
C3144      N3149   1.157       .  T
C3145      N3147   1.158       .  T
C3146      N3148   1.157       .  T
C3151      C3152   1.413       .  A
C3151      C3156   1.402   1_545  A
C3152      C3153   1.391       .  A
C3152      C3157   1.454       .  S
C3153      C3154   1.402       .  A
C3153      C3160   1.453       .  S
C3154      C3155   1.415   1_545  A
C3155      C3156   1.397       .  A
C3155      C3158   1.454       .  S
C3156      C3159   1.451       .  S
C3157      N3164   1.157       .  T
C3158      N3163   1.158       .  T
C3159      N3161   1.157       .  T
C3160      N3162   1.157       .  T
C3165      C3166   1.406       .  A
C3165      C3170   1.411       .  A
C3166      C3167   1.394       .  A
C3166      C3171   1.458       .  S
C3167      C3168   1.421       .  A
C3167      C3174   1.452       .  S
C3168      C3169   1.403       .  A
C3169      C3170   1.406       .  A
C3169      C3172   1.441       .  S
C3170      C3173   1.450       .  S
C3171      N3178   1.158       .  T
C3172      N3177   1.154       .  T
C3173      N3175   1.157       .  T
C3174      N3176   1.158       .  T
C3179      C3180   1.408       .  A
C3179      C3184   1.417       .  A
C3180      C3181   1.390       .  A
C3180      C3185   1.453       .  S
C3181      C3182   1.414       .  A
C3181      C3188   1.449       .  S
C3182      C3183   1.409       .  A
C3183      C3184   1.412       .  A
C3183      C3186   1.450       .  S
C3184      C3187   1.437       .  S
C3185      N3192   1.157       .  T
C3186      N3191   1.157       .  T
C3187      N3189   1.153       .  T
C3188      N3190   1.155       .  T
C3193      C3194   1.404       .  A
C3193      C3198   1.397       .  A
C3194      C3195   1.407       .  A
C3194      C3199   1.455       .  S
C3195      C3196   1.428       .  A
C3195      C3202   1.447       .  S
C3196      C3197   1.438       .  A
C3197      C3198   1.405       .  A
C3197      C3200   1.447       .  S
C3198      C3201   1.456       .  S
C3199      N3206   1.157       .  T
C3200      N3205   1.158       .  T
C3201      N3203   1.157       .  T
C3202      N3204   1.156       .  T
C3207      C3208   1.404       .  A
C3207      C3212   1.408       .  A
C3208      C3209   1.406       .  A
C3208      C3213   1.450       .  S
C3209      C3210   1.416       .  A
C3209      C3216   1.448       .  S
C3210      C3211   1.418       .  A
C3211      C3212   1.408       .  A
C3211      C3214   1.452       .  S
C3212      C3215   1.449       .  S
C3213      N3220   1.157       .  T
C3214      N3219   1.158       .  T
C3215      N3217   1.157       .  T
C3216      N3218   1.156       .  T
C3221      C3222   1.399       .  A
C3221      C3226   1.406       .  A
C3222      C3223   1.394       .  A
C3222      C3227   1.454       .  S
C3223      C3224   1.424       .  A
C3223      C3230   1.451       .  S
C3224      C3225   1.413       .  A
C3225      C3226   1.410       .  A
C3225      C3228   1.449       .  S
C3226      C3229   1.448       .  S
C3227      N3234   1.157       .  T
C3228      N3233   1.157       .  T
C3229      N3231   1.157       .  T
C3230      N3232   1.157       .  T
C3235      C3236   1.429       .  A
C3235      C3240   1.407       .  A
C3236      C3237   1.415       .  A
C3236      C3241   1.448       .  S
C3237      C3238   1.405       .  A
C3237      C3244   1.447       .  S
C3238      C3239   1.411       .  A
C3239      C3240   1.387       .  A
C3239      C3242   1.449       .  S
C3240      C3243   1.451       .  S
C3241      N3248   1.158       .  T
C3242      N3247   1.156       .  T
C3243      N3245   1.156       .  T
C3244      N3246   1.156       .  T
C3249      C3250   1.410       .  A
C3249      C3254   1.407       .  A
C3250      C3251   1.392       .  A
C3250      C3255   1.456       .  S
C3251      C3252   1.414       .  A
C3251      C3258   1.456       .  S
C3252      C3253   1.408       .  A
C3253      C3254   1.406       .  A
C3253      C3256   1.449       .  S
C3254      C3257   1.449       .  S
C3255      N3262   1.157       .  T
C3256      N3261   1.157       .  T
C3257      N3259   1.157       .  T
C3258      N3260   1.158       .  T
C3263      C3264   1.407       .  A
C3263      C3268   1.409       .  A
C3264      C3265   1.408       .  A
C3264      C3269   1.450       .  S
C3265      C3266   1.412       .  A
C3265      C3272   1.450       .  S
C3266      C3267   1.409       .  A
C3267      C3268   1.398       .  A
C3267      C3270   1.451       .  S
C3268      C3271   1.453       .  S
C3269      N3276   1.157       .  T
C3270      N3275   1.157       .  T
C3271      N3273   1.157       .  T
C3272      N3274   1.157       .  T
C3277      C3278   1.418       .  A
C3277      C3282   1.401       .  A
C3278      C3279   1.387       .  A
C3278      C3283   1.455       .  S
C3279      C3280   1.401       .  A
C3279      C3286   1.455       .  S
C3280      C3281   1.417       .  A
C3281      C3282   1.400       .  A
C3281      C3284   1.452       .  S
C3282      C3285   1.450       .  S
C3283      N3290   1.158       .  T
C3284      N3289   1.157       .  T
C3285      N3287   1.157       .  T
C3286      N3288   1.157       .  T
C3291      C3292   1.403       .  A
C3291      C3296   1.396       .  A
C3292      C3293   1.405       .  A
C3292      C3297   1.450       .  S
C3293      C3294   1.413       .  A
C3293      C3300   1.445       .  S
C3294      C3295   1.429       .  A
C3295      C3296   1.387       .  A
C3295      C3298   1.451       .  S
C3296      C3299   1.460       .  S
C3297      N3304   1.157       .  T
C3298      N3303   1.158       .  T
C3299      N3301   1.158       .  T
C3300      N3302   1.156       .  T
C3305      C3306   1.420       .  A
C3305      C3310   1.414       .  A
C3306      C3307   1.406       .  A
C3306      C3311   1.450       .  S
C3307      C3308   1.408       .  A
C3307      C3314   1.452       .  S
C3308      C3309   1.412       .  A
C3309      C3310   1.389       .  A
C3309      C3312   1.455       .  S
C3310      C3313   1.453       .  S
C3311      N3318   1.157       .  T
C3312      N3317   1.157       .  T
C3313      N3315   1.157       .  T
C3314      N3316   1.157       .  T
C3319      C3320   1.417       .  A
C3319      C3324   1.406       .  A
C3320      C3321   1.389       .  A
C3320      C3325   1.454       .  S
C3321      C3322   1.404       .  A
C3321      C3328   1.456       .  S
C3322      C3323   1.410       .  A
C3323      C3324   1.407       .  A
C3323      C3326   1.448       .  S
C3324      C3327   1.449       .  S
C3325      N3332   1.157       .  T
C3326      N3331   1.157       .  T
C3327      N3329   1.157       .  T
C3328      N3330   1.158       .  T
C3333      C3334   1.404       .  A
C3333      C3338   1.419       .  A
C3334      C3335   1.402       .  A
C3334      C3339   1.451       .  S
C3335      C3336   1.429       .  A
C3335      C3342   1.446       .  S
C3336      C3337   1.414       .  A
C3337      C3338   1.403       .  A
C3337      C3340   1.449       .  S
C3338      C3341   1.443       .  S
C3339      N3346   1.158       .  T
C3340      N3345   1.157       .  T
C3341      N3343   1.156       .  T
C3342      N3344   1.157       .  T
C3347      C3348   1.405       .  A
C3347      C3352   1.405       .  A
C3348      C3349   1.399       .  A
C3348      C3353   1.457       .  S
C3349      C3350   1.426       .  A
C3349      C3356   1.450       .  S
C3350      C3351   1.420       .  A
C3351      C3352   1.406       .  A
C3351      C3354   1.450       .  S
C3352      C3355   1.449       .  S
C3353      N3360   1.157       .  T
C3354      N3359   1.157       .  T
C3355      N3357   1.156       .  T
C3356      N3358   1.157       .  T
C3361      C3362   1.401       .  A
C3361      C3366   1.413       .  A
C3362      C3363   1.391       .  A
C3362      C3367   1.456       .  S
C3363      C3364   1.424       .  A
C3363      C3370   1.452       .  S
C3364      C3365   1.406       .  A
C3365      C3366   1.407       .  A
C3365      C3368   1.449       .  S
C3366      C3369   1.448       .  S
C3367      N3374   1.157       .  T
C3368      N3373   1.157       .  T
C3369      N3371   1.156       .  T
C3370      N3372   1.158       .  T
C3375      C3376   1.420       .  A
C3375      C3380   1.423       .  A
C3376      C3377   1.404       .  A
C3376      C3381   1.438       .  S
C3377      C3378   1.399       .  A
C3377      C3384   1.453       .  S
C3378      C3379   1.401       .  A
C3379      C3380   1.401       .  A
C3379      C3382   1.455       .  S
C3380      C3383   1.444       .  S
C3381      N3388   1.153       .  T
C3382      N3387   1.157       .  T
C3383      N3385   1.153       .  T
C3384      N3386   1.157       .  T
C3389      C3390   1.420       .  A
C3389      C3394   1.412       .  A
C3390      C3391   1.384       .  A
C3390      C3395   1.453       .  S
C3391      C3392   1.405       .  A
C3391      C3398   1.459       .  S
C3392      C3393   1.407       .  A
C3393      C3394   1.412       .  A
C3393      C3396   1.448       .  S
C3394      C3397   1.448       .  S
C3395      N3402   1.158       .  T
C3396      N3401   1.157       .  T
C3397      N3399   1.157       .  T
C3398      N3400   1.157       .  T
C3403      C3404   1.401       .  A
C3403      C3408   1.413       .  A
C3404      C3405   1.389       .  A
C3404      C3409   1.450       .  S
C3405      C3406   1.415       .  A
C3405      C3412   1.455       .  S
C3406      C3407   1.399       .  A
C3407      C3408   1.400       .  A
C3407      C3410   1.444       .  S
C3408      C3411   1.449       .  S
C3409      N3416   1.157       .  T
C3410      N3415   1.154       .  T
C3411      N3413   1.157       .  T
C3412      N3414   1.157       .  T
C3417      C3418   1.400       .  A
C3417      C3422   1.397       .  A
C3418      C3419   1.397       .  A
C3418      C3423   1.455       .  S
C3419      C3420   1.422       .  A
C3419      C3426   1.448       .  S
C3420      C3421   1.433       .  A
C3421      C3422   1.407       .  A
C3421      C3424   1.443       .  S
C3422      C3425   1.454       .  S
C3423      N3430   1.157   1_556  T
C3424      N3429   1.156       .  T
C3425      N3427   1.157       .  T
C3426      N3428   1.155       .  T
C3431      C3432   1.413       .  A
C3431      C3436   1.428       .  A
C3432      C3433   1.400       .  A
C3432      C3437   1.450       .  S
C3433      C3434   1.413       .  A
C3433      C3440   1.440       .  S
C3434      C3435   1.402       .  A
C3435      C3436   1.401       .  A
C3435      C3438   1.452       .  S
C3436      C3439   1.442       .  S
C3437      N3444   1.157       .  T
C3438      N3443   1.157       .  T
C3439      N3441   1.154   1_554  T
C3440      N3442   1.153       .  T
C3445      C3446   1.419       .  A
C3445      C3450   1.413       .  A
C3446      C3447   1.393       .  A
C3446      C3451   1.450       .  S
C3447      C3448   1.405       .  A
C3447      C3454   1.455       .  S
C3448      C3449   1.414       .  A
C3449      C3450   1.412       .  A
C3449      C3452   1.447       .  S
C3450      C3453   1.449       .  S
C3451      N3458   1.156       .  T
C3452      N3457   1.157       .  T
C3453      N3455   1.157       .  T
C3454      N3456   1.157       .  T
C3459      C3460   1.424       .  A
C3459      C3464   1.407       .  A
C3460      C3461   1.389       .  A
C3460      C3465   1.453       .  S
C3461      C3462   1.401       .  A
C3461      C3468   1.460       .  S
C3462      C3463   1.411       .  A
C3463      C3464   1.408       .  A
C3463      C3466   1.449       .  S
C3464      C3467   1.449       .  S
C3465      N3472   1.158       .  T
C3466      N3471   1.157       .  T
C3467      N3469   1.157       .  T
C3468      N3470   1.158       .  T
C3473      C3474   1.431       .  A
C3473      C3478   1.439       .  A
C3474      C3475   1.389       .  A
C3474      C3479   1.444       .  S
C3475      C3476   1.397       .  A
C3475      C3482   1.460       .  S
C3476      C3477   1.395       .  A
C3477      C3478   1.411       .  A
C3477      C3480   1.452   1_455  S
C3478      C3481   1.446       .  S
C3479      N3486   1.154       .  T
C3480      N3485   1.157       .  T
C3481      N3483   1.156       .  T
C3482      N3484   1.157       .  T
C3487      C3488   1.404       .  A
C3487      C3492   1.404       .  A
C3488      C3489   1.408       .  A
C3488      C3493   1.448       .  S
C3489      C3490   1.414       .  A
C3489      C3496   1.448       .  S
C3490      C3491   1.423       .  A
C3491      C3492   1.398       .  A
C3491      C3494   1.453       .  S
C3492      C3495   1.454       .  S
C3493      N3500   1.157       .  T
C3494      N3499   1.157       .  T
C3495      N3497   1.157       .  T
C3496      N3498   1.156       .  T
C3501      C3502   1.435       .  A
C3501      C3506   1.437       .  A
C3502      C3503   1.411       .  A
C3502      C3507   1.447       .  S
C3503      C3504   1.403   1_655  A
C3503      C3510   1.455       .  S
C3504      C3505   1.398       .  A
C3505      C3506   1.409   1_455  A
C3505      C3508   1.455       .  S
C3506      C3509   1.445       .  S
C3507      N3514   1.156   1_554  T
C3508      N3513   1.157       .  T
C3509      N3511   1.157       .  T
C3510      N3512   1.157       .  T
C3515      C3516   1.406       .  A
C3515      C3520   1.405       .  A
C3516      C3517   1.409       .  A
C3516      C3521   1.447       .  S
C3517      C3518   1.413       .  A
C3517      C3524   1.449       .  S
C3518      C3519   1.419       .  A
C3519      C3520   1.400       .  A
C3519      C3522   1.453       .  S
C3520      C3523   1.450   1_554  S
C3521      N3528   1.157       .  T
C3522      N3527   1.157       .  T
C3523      N3525   1.157       .  T
C3524      N3526   1.157       .  T
C3529      C3530   1.412       .  A
C3529      C3534   1.416       .  A
C3530      C3531   1.401       .  A
C3530      C3535   1.451       .  S
C3531      C3532   1.407       .  A
C3531      C3538   1.452       .  S
C3532      C3533   1.406       .  A
C3533      C3534   1.401       .  A
C3533      C3536   1.453       .  S
C3534      C3537   1.453       .  S
C3535      N3542   1.157   1_655  T
C3536      N3541   1.157       .  T
C3537      N3539   1.158   1_655  T
C3538      N3540   1.157       .  T
C3543      C3544   1.412       .  A
C3543      C3548   1.404       .  A
C3544      C3545   1.400       .  A
C3544      C3549   1.455       .  S
C3545      C3546   1.418       .  A
C3545      C3552   1.456       .  S
C3546      C3547   1.416       .  A
C3547      C3548   1.408       .  A
C3547      C3550   1.446       .  S
C3548      C3551   1.451   1_565  S
C3549      N3556   1.157       .  T
C3550      N3555   1.156       .  T
C3551      N3553   1.157       .  T
C3552      N3554   1.158   1_455  T
C3557      C3558   1.420       .  A
C3557      C3562   1.408       .  A
C3558      C3559   1.396       .  A
C3558      C3563   1.455       .  S
C3559      C3560   1.412       .  A
C3559      C3566   1.455   1_545  S
C3560      C3561   1.416       .  A
C3561      C3562   1.412       .  A
C3561      C3564   1.450       .  S
C3562      C3565   1.449       .  S
C3563      N3570   1.158   1_545  T
C3564      N3569   1.157       .  T
C3565      N3567   1.157       .  T
C3566      N3568   1.157       .  T
C3571      C3572   1.409       .  A
C3571      C3576   1.409       .  A
C3572      C3573   1.398       .  A
C3572      C3577   1.455   1_545  S
C3573      C3574   1.415       .  A
C3573      C3580   1.453   1_545  S
C3574      C3575   1.409       .  A
C3575      C3576   1.408       .  A
C3575      C3578   1.449       .  S
C3576      C3579   1.450       .  S
C3577      N3584   1.157       .  T
C3578      N3583   1.157       .  T
C3579      N3581   1.157       .  T
C3580      N3582   1.157       .  T
C3585      C3586   1.413       .  A
C3585      C3590   1.413       .  A
C3586      C3587   1.409       .  A
C3586      C3591   1.450       .  S
C3587      C3588   1.407       .  A
C3587      C3594   1.444       .  S
C3588      C3589   1.419       .  A
C3589      C3590   1.397       .  A
C3589      C3592   1.454       .  S
C3590      C3593   1.455       .  S
C3591      N3598   1.157       .  T
C3592      N3597   1.158       .  T
C3593      N3595   1.157       .  T
C3594      N3596   1.155       .  T
C3599      C3600   1.411       .  A
C3599      C3604   1.415       .  A
C3600      C3601   1.411       .  A
C3600      C3605   1.450       .  S
C3601      C3602   1.411       .  A
C3601      C3608   1.449       .  S
C3602      C3603   1.414       .  A
C3603      C3604   1.399       .  A
C3603      C3606   1.452   1_554  S
C3604      C3607   1.456   1_554  S
C3605      N3612   1.157       .  T
C3606      N3611   1.157       .  T
C3607      N3609   1.158       .  T
C3608      N3610   1.157       .  T
C3613      C3614   1.415       .  A
C3613      C3618   1.412       .  A
C3614      C3615   1.405       .  A
C3614      C3619   1.451       .  S
C3615      C3616   1.405       .  A
C3615      C3622   1.450       .  S
C3616      C3617   1.416       .  A
C3617      C3618   1.394       .  A
C3617      C3620   1.454       .  S
C3618      C3621   1.457       .  S
C3619      N3626   1.157       .  T
C3620      N3625   1.156       .  T
C3621      N3623   1.158       .  T
C3622      N3624   1.157       .  T
C3627      C3628   1.413       .  A
C3627      C3632   1.413       .  A
C3628      C3629   1.401       .  A
C3628      C3633   1.452       .  S
C3629      C3630   1.411       .  A
C3629      C3636   1.453       .  S
C3630      C3631   1.411       .  A
C3631      C3632   1.399       .  A
C3631      C3634   1.453       .  S
C3632      C3635   1.453       .  S
C3633      N3640   1.157   1_565  T
C3634      N3639   1.157       .  T
C3635      N3637   1.157       .  T
C3636      N3638   1.157       .  T
C3641      C3642   1.423       .  A
C3641      C3646   1.411       .  A
C3642      C3643   1.387       .  A
C3642      C3647   1.452   1_545  S
C3643      C3644   1.403       .  A
C3643      C3650   1.459   1_545  S
C3644      C3645   1.409       .  A
C3645      C3646   1.411       .  A
C3645      C3648   1.448       .  S
C3646      C3649   1.448       .  S
C3647      N3654   1.158       .  T
C3648      N3653   1.157       .  T
C3649      N3651   1.157       .  T
C3650      N3652   1.157       .  T
C3655      C3656   1.407       .  A
C3655      C3660   1.415       .  A
C3656      C3657   1.406       .  A
C3656      C3661   1.449       .  S
C3657      C3658   1.409       .  A
C3657      C3664   1.450       .  S
C3658      C3659   1.406       .  A
C3659      C3660   1.393       .  A
C3659      C3662   1.455       .  S
C3660      C3663   1.455   1_655  S
C3661      N3668   1.157       .  T
C3662      N3667   1.157       .  T
C3663      N3665   1.158       .  T
C3664      N3666   1.157       .  T
C3669      C3670   1.410       .  A
C3669      C3674   1.415       .  A
C3670      C3671   1.397       .  A
C3670      C3675   1.455       .  S
C3671      C3672   1.411       .  A
C3671      C3678   1.438       .  S
C3672      C3673   1.407       .  A
C3673      C3674   1.412       .  A
C3673      C3676   1.446       .  S
C3674      C3677   1.446       .  S
C3675      N3682   1.157   1_455  T
C3676      N3681   1.156       .  T
C3677      N3679   1.156       .  T
C3678      N3680   1.150       .  T
C3683      C3684   1.417       .  A
C3683      C3688   1.421       .  A
C3684      C3685   1.413       .  A
C3684      C3689   1.444       .  S
C3685      C3686   1.412       .  A
C3685      C3692   1.446       .  S
C3686      C3687   1.395       .  A
C3687      C3688   1.391       .  A
C3687      C3690   1.447       .  S
C3688      C3691   1.442       .  S
C3689      N3696   1.156       .  T
C3690      N3695   1.157       .  T
C3691      N3693   1.154       .  T
C3692      N3694   1.157       .  T
C3697      C3698   1.411       .  A
C3697      C3702   1.408       .  A
C3698      C3699   1.411       .  A
C3698      C3703   1.449       .  S
C3699      C3700   1.408       .  A
C3699      C3706   1.448       .  S
C3700      C3701   1.416       .  A
C3701      C3702   1.386       .  A
C3701      C3704   1.455       .  S
C3702      C3705   1.457       .  S
C3703      N3710   1.157       .  T
C3704      N3709   1.157       .  T
C3705      N3707   1.158       .  T
C3706      N3708   1.157       .  T
C3711      C3712   1.405       .  A
C3711      C3716   1.403       .  A
C3712      C3713   1.408       .  A
C3712      C3717   1.448       .  S
C3713      C3714   1.410       .  A
C3713      C3720   1.446       .  S
C3714      C3715   1.424       .  A
C3715      C3716   1.389       .  A
C3715      C3718   1.452       .  S
C3716      C3719   1.460       .  S
C3717      N3724   1.157       .  T
C3718      N3723   1.158       .  T
C3719      N3721   1.158       .  T
C3720      N3722   1.157       .  T
C3725      C3726   1.426       .  A
C3725      C3730   1.419       .  A
C3726      C3727   1.405       .  A
C3726      C3731   1.450       .  S
C3727      C3728   1.398       .  A
C3727      C3734   1.448       .  S
C3728      C3729   1.405       .  A
C3729      C3730   1.396       .  A
C3729      C3732   1.454       .  S
C3730      C3733   1.450       .  S
C3731      N3738   1.157       .  T
C3732      N3737   1.157       .  T
C3733      N3735   1.156       .  T
C3734      N3736   1.155       .  T
C3739      C3740   1.416       .  A
C3739      C3744   1.418       .  A
C3740      C3741   1.401       .  A
C3740      C3745   1.448       .  S
C3741      C3742   1.409       .  A
C3741      C3748   1.451       .  S
C3742      C3743   1.406       .  A
C3743      C3744   1.410       .  A
C3743      C3746   1.448       .  S
C3744      C3747   1.450       .  S
C3745      N3752   1.158       .  T
C3746      N3751   1.157       .  T
C3747      N3749   1.157       .  T
C3748      N3750   1.157       .  T
C3753      C3754   1.415       .  A
C3753      C3758   1.411       .  A
C3754      C3755   1.397       .  A
C3754      C3759   1.448       .  S
C3755      C3756   1.407       .  A
C3755      C3762   1.453       .  S
C3756      C3757   1.414       .  A
C3757      C3758   1.412       .  A
C3757      C3760   1.446       .  S
C3758      C3761   1.450       .  S
C3759      N3766   1.155       .  T
C3760      N3765   1.156       .  T
C3761      N3763   1.157       .  T
C3762      N3764   1.157       .  T
C3767      C3768   1.407       .  A
C3767      C3772   1.420       .  A
C3768      C3769   1.412       .  A
C3768      C3773   1.447       .  S
C3769      C3770   1.409       .  A
C3769      C3776   1.445       .  S
C3770      C3771   1.408       .  A
C3771      C3772   1.395       .  A
C3771      C3774   1.457       .  S
C3772      C3775   1.454       .  S
C3773      N3780   1.157       .  T
C3774      N3779   1.158       .  T
C3775      N3777   1.158       .  T
C3776      N3778   1.156       .  T
C3781      C3782   1.410       .  A
C3781      C3786   1.403       .  A
C3782      C3783   1.390       .  A
C3782      C3787   1.456       .  S
C3783      C3784   1.406       .  A
C3783      C3790   1.451       .  S
C3784      C3785   1.416       .  A
C3785      C3786   1.404       .  A
C3785      C3788   1.451       .  S
C3786      C3789   1.451       .  S
C3787      N3794   1.157       .  T
C3788      N3793   1.157       .  T
C3789      N3791   1.158       .  T
C3790      N3792   1.156       .  T
C3795      C3796   1.427       .  A
C3795      C3800   1.411       .  A
C3796      C3797   1.416       .  A
C3796      C3801   1.445       .  S
C3797      C3798   1.406       .  A
C3797      C3804   1.450       .  S
C3798      C3799   1.410       .  A
C3799      C3800   1.391       .  A
C3799      C3802   1.450       .  S
C3800      C3803   1.451       .  S
C3801      N3808   1.156       .  T
C3802      N3807   1.156       .  T
C3803      N3805   1.156       .  T
C3804      N3806   1.157       .  T
C3809      C3810   1.411       .  A
C3809      C3814   1.406       .  A
C3810      C3811   1.391       .  A
C3810      C3815   1.457       .  S
C3811      C3812   1.417       .  A
C3811      C3818   1.456       .  S
C3812      C3813   1.411       .  A
C3813      C3814   1.407       .  A
C3813      C3816   1.450       .  S
C3814      C3817   1.447       .  S
C3815      N3822   1.157       .  T
C3816      N3821   1.157       .  T
C3817      N3819   1.156       .  T
C3818      N3820   1.158       .  T
C3823      C3824   1.422       .  A
C3823      C3828   1.402       .  A
C3824      C3825   1.418       .  A
C3824      C3829   1.444       .  S
C3825      C3826   1.417       .  A
C3825      C3832   1.449       .  S
C3826      C3827   1.413       .  A
C3827      C3828   1.388       .  A
C3827      C3830   1.441       .  S
C3828      C3831   1.451       .  S
C3829      N3836   1.157       .  T
C3830      N3835   1.153       .  T
C3831      N3833   1.157   1_556  T
C3832      N3834   1.157       .  T
C3837      C3838   1.411       .  A
C3837      C3842   1.396       .  A
C3838      C3839   1.413       .  A
C3838      C3843   1.453       .  S
C3839      C3840   1.429       .  A
C3839      C3846   1.442       .  S
C3840      C3841   1.429       .  A
C3841      C3842   1.403       .  A
C3841      C3844   1.434       .  S
C3842      C3845   1.455       .  S
C3843      N3850   1.157       .  T
C3844      N3849   1.151       .  T
C3845      N3847   1.157       .  T
C3846      N3848   1.154       .  T
C3851      C3852   1.408       .  A
C3851      C3856   1.404       .  A
C3852      C3853   1.404       .  A
C3852      C3857   1.449       .  S
C3853      C3854   1.409       .  A
C3853      C3860   1.450       .  S
C3854      C3855   1.418       .  A
C3855      C3856   1.400       .  A
C3855      C3858   1.453       .  S
C3856      C3859   1.451   1_554  S
C3857      N3864   1.157       .  T
C3858      N3863   1.157       .  T
C3859      N3861   1.157       .  T
C3860      N3862   1.157       .  T
C3865      C3866   1.407       .  A
C3865      C3870   1.406       .  A
C3866      C3867   1.409       .  A
C3866      C3871   1.449       .  S
C3867      C3868   1.410       .  A
C3867      C3874   1.446       .  S
C3868      C3869   1.417       .  A
C3869      C3870   1.387       .  A
C3869      C3872   1.453       .  S
C3870      C3873   1.458       .  S
C3871      N3878   1.157       .  T
C3872      N3877   1.158       .  T
C3873      N3875   1.157   1_655  T
C3874      N3876   1.157       .  T
C3879      C3880   1.409       .  A
C3879      C3884   1.407       .  A
C3880      C3881   1.385       .  A
C3880      C3885   1.458       .  S
C3881      C3882   1.415       .  A
C3881      C3888   1.456       .  S
C3882      C3883   1.409       .  A
C3883      C3884   1.409       .  A
C3883      C3886   1.448       .  S
C3884      C3887   1.449       .  S
C3885      N3892   1.158       .  T
C3886      N3891   1.157       .  T
C3887      N3889   1.157       .  T
C3888      N3890   1.158       .  T
C3893      C3894   1.402       .  A
C3893      C3898   1.400       .  A
C3894      C3895   1.396       .  A
C3894      C3899   1.452   1_455  S
C3895      C3896   1.419       .  A
C3895      C3902   1.453   1_455  S
C3896      C3897   1.425       .  A
C3897      C3898   1.403       .  A
C3897      C3900   1.451       .  S
C3898      C3901   1.453       .  S
C3899      N3906   1.157       .  T
C3900      N3905   1.158       .  T
C3901      N3903   1.157       .  T
C3902      N3904   1.157       .  T
C3907      C3908   1.402       .  A
C3907      C3912   1.427       .  A
C3908      C3909   1.395       .  A
C3908      C3913   1.450       .  S
C3909      C3910   1.416       .  A
C3909      C3916   1.439   1_554  S
C3910      C3911   1.410       .  A
C3911      C3912   1.410       .  A
C3911      C3914   1.446       .  S
C3912      C3915   1.445       .  S
C3913      N3920   1.157       .  T
C3914      N3919   1.155       .  T
C3915      N3917   1.157       .  T
C3916      N3918   1.153       .  T
C3921      C3922   1.407       .  A
C3921      C3926   1.414       .  A
C3922      C3923   1.390       .  A
C3922      C3927   1.454       .  S
C3923      C3924   1.418       .  A
C3923      C3930   1.451       .  S
C3924      C3925   1.417       .  A
C3925      C3926   1.413       .  A
C3925      C3928   1.449       .  S
C3926      C3929   1.447       .  S
C3927      N3934   1.157   1_556  T
C3928      N3933   1.157       .  T
C3929      N3931   1.157       .  T
C3930      N3932   1.157       .  T
C3935      C3936   1.424       .  A
C3935      C3940   1.435       .  A
C3936      C3937   1.386       .  A
C3936      C3941   1.440       .  S
C3937      C3938   1.394       .  A
C3937      C3944   1.455       .  S
C3938      C3939   1.407       .  A
C3939      C3940   1.415       .  A
C3939      C3942   1.452   1_554  S
C3940      C3943   1.446       .  S
C3941      N3948   1.152       .  T
C3942      N3947   1.157       .  T
C3943      N3945   1.157   1_554  T
C3944      N3946   1.157       .  T
C3949      C3950   1.400       .  A
C3949      C3954   1.410       .  A
C3950      C3951   1.394       .  A
C3950      C3955   1.454       .  S
C3951      C3952   1.421       .  A
C3951      C3958   1.454       .  S
C3952      C3953   1.405       .  A
C3953      C3954   1.401       .  A
C3953      C3956   1.450       .  S
C3954      C3957   1.451       .  S
C3955      N3962   1.157       .  T
C3956      N3961   1.157       .  T
C3957      N3959   1.157       .  T
C3958      N3960   1.157       .  T
C3963      C3964   1.411       .  A
C3963      C3968   1.414       .  A
C3964      C3965   1.394       .  A
C3964      C3969   1.453   1_565  S
C3965      C3966   1.420       .  A
C3965      C3972   1.454   1_565  S
C3966      C3967   1.415       .  A
C3967      C3968   1.410       .  A
C3967      C3970   1.450       .  S
C3968      C3971   1.451       .  S
C3969      N3976   1.157       .  T
C3970      N3975   1.157       .  T
C3971      N3973   1.157       .  T
C3972      N3974   1.158       .  T
C3977      C3978   1.406       .  A
C3977      C3982   1.398       .  A
C3978      C3979   1.405       .  A
C3978      C3983   1.438       .  S
C3979      C3980   1.415       .  A
C3979      C3986   1.449       .  S
C3980      C3981   1.430       .  A
C3981      C3982   1.403       .  A
C3981      C3984   1.445       .  S
C3982      C3985   1.452       .  S
C3983      N3990   1.153       .  T
C3984      N3989   1.154   1_545  T
C3985      N3987   1.157       .  T
C3986      N3988   1.157       .  T
C3991      C3992   1.408       .  A
C3991      C3996   1.408       .  A
C3992      C3993   1.392       .  A
C3992      C3997   1.458       .  S
C3993      C3994   1.420       .  A
C3993      C4000   1.454       .  S
C3994      C3995   1.408       .  A
C3995      C3996   1.409       .  A
C3995      C3998   1.449       .  S
C3996      C3999   1.445       .  S
C3997      N4004   1.158       .  T
C3998      N4003   1.157       .  T
C3999      N4001   1.156       .  T
C4000      N4002   1.158       .  T
C4005      C4006   1.408       .  A
C4005      C4010   1.415       .  A
C4006      C4007   1.395       .  A
C4006      C4011   1.451       .  S
C4007      C4008   1.413       .  A
C4007      C4014   1.455       .  S
C4008      C4009   1.404       .  A
C4009      C4010   1.409       .  A
C4009      C4012   1.449       .  S
C4010      C4013   1.449       .  S
C4011      N4018   1.157       .  T
C4012      N4017   1.157       .  T
C4013      N4015   1.157       .  T
C4014      N4016   1.157       .  T
C4019      C4020   1.408       .  A
C4019      C4024   1.427       .  A
C4020      C4021   1.387       .  A
C4020      C4025   1.449       .  S
C4021      C4022   1.410       .  A
C4021      C4028   1.450       .  S
C4022      C4023   1.406       .  A
C4023      C4024   1.417       .  A
C4023      C4026   1.448       .  S
C4024      C4027   1.448       .  S
C4025      N4032   1.156       .  T
C4026      N4031   1.156       .  T
C4027      N4029   1.157       .  T
C4028      N4030   1.157       .  T
