geometry optimzed in LAMMPS
_audit_creation_date              2020-11-30 
_audit_creation_method            'lammps2cif' 
_symmetry_space_group_name_H-M    'P1' 
_symmetry_Int_Tables_number       1 
_symmetry_cell_setting            triclinic 
loop_ 
_symmetry_equiv_pos_as_xyz 
  x,y,z 
_cell_length_a                    35.67130111 
_cell_length_b                    36.84313366832898 
_cell_length_c                    36.855890579951684 
_cell_angle_alpha                 89.97552534757025 
_cell_angle_beta                  89.37855283039947 
_cell_angle_gamma                 89.45159426976235 
loop_ 
_atom_site_label 
_atom_site_type_symbol 
_atom_site_fract_x 
_atom_site_fract_y 
_atom_site_fract_z 
_atom_site_charge 
O1          O  0.55757425  0.95756012  0.48063200    -0.80200
O2          O  0.45129419  0.95000576  0.49877585    -0.80200
O3          O  0.53734953  0.99617999  0.57665796    -0.80200
O4          O  0.49328576  0.96753520  0.42987301    -0.80200
O5          O  0.50035599  0.95252550  0.55701391    -0.80300
O6          O  0.54934239  0.98131218  0.40901125    -0.80200
O7          O  0.42665978  0.98729388  0.46079401    -0.80200
O8          O  0.58538278  0.99420350  0.51919992    -0.80200
C9          C  0.58592918  0.96562608  0.49943062     1.09500
C10         C  0.42342599  0.95909908  0.48007471     1.09400
C11         C  0.52377430  0.96464522  0.57958729     1.09500
C12         C  0.51864540  0.96472257  0.40487898     1.09400
O13         O  0.51586443  0.04485225  0.42865109    -0.80200
O14         O  0.46964685  0.02117690  0.57633536    -0.80300
O15         O  0.55642673  0.06527437  0.49678514    -0.80200
O16         O  0.45245355  0.05723136  0.47908924    -0.80200
O17         O  0.42258945  0.02270205  0.51868141    -0.80200
O18         O  0.58206559  0.02719285  0.45953803    -0.80200
O19         O  0.45997879  0.03047836  0.40885489    -0.80200
O20         O  0.50717270  0.06442114  0.55614934    -0.80200
Co21       Co  0.53383284  0.99906860  0.45614587     1.51500
Co22       Co  0.46348709  0.98690890  0.53541944     1.51700
Co23       Co  0.54405955  0.02963525  0.53487062     1.51600
Co24       Co  0.47539410  0.01438737  0.45606776     1.51500
O25         O  0.50423289  0.00754133  0.50261183    -1.42100
C26         C  0.49050691  0.04728305  0.40416863     1.09400
C27         C  0.48357195  0.05251530  0.57910250     1.09500
C28         C  0.58472197  0.05588330  0.47817419     1.09400
C29         C  0.42329918  0.05061091  0.49778813     1.09400
O30         O  0.96965340  0.56409601  0.51614702    -0.80200
O31         O  0.99519970  0.41782430  0.47065063    -0.80200
O32         O  0.95865058  0.51536784  0.45473210    -0.80200
O33         O  0.94944201  0.49646609  0.55459562    -0.80200
O34         O  0.99402361  0.47567022  0.42509152    -0.80300
O35         O  0.98746007  0.53208982  0.58106185    -0.80200
O36         O  0.95070778  0.43966402  0.50697562    -0.80200
O37         O  0.98582976  0.58513138  0.46229552    -0.80200
C38         C  0.96760322  0.58911734  0.49179851     1.09500
C39         C  0.96242931  0.41674157  0.48400285     1.09400
C40         C  0.96550329  0.49706480  0.42630066     1.09500
C41         C  0.95795738  0.51334641  0.58287566     1.09400
O42         O  0.06014125  0.51214918  0.55579027    -0.80200
O43         O  0.06883578  0.49434167  0.45137547    -0.80300
O44         O  0.05032090  0.56362742  0.49434247    -0.80200
O45         O  0.02103156  0.41627361  0.53513608    -0.80200
O46         O  0.06626109  0.43556282  0.49834167    -0.80200
O47         O  0.03413787  0.58328584  0.54883527    -0.80200
O48         O  0.02265017  0.47280094  0.58257254    -0.80200
O49         O  0.03105003  0.53339851  0.42841532    -0.80200
Co50       Co  0.01696235  0.53657457  0.53354712     1.51500
Co51       Co  0.03082861  0.45808077  0.46385722     1.51700
Co52       Co  0.00277334  0.53772521  0.47650261     1.51600
Co53       Co  0.98647470  0.45843505  0.54249831     1.51500
O54         O  0.00989031  0.49076212  0.50407964    -1.42100
C55         C  0.05174599  0.49289802  0.58319137     1.09400
C56         C  0.05910546  0.51246731  0.42410566     1.09500
C57         C  0.05190557  0.58815794  0.51923347     1.09400
C58         C  0.05348538  0.41286367  0.52104760     1.09400
O59         O  0.44816357  0.49693222  0.06096582    -0.80200
O60         O  0.55128837  0.47939800  0.05359084    -0.80200
O61         O  0.48945008  0.42559631  0.04061128    -0.80200
O62         O  0.53254390  0.57639669  0.01108727    -0.80200
O63         O  0.54689660  0.40713799  0.02913660    -0.80300
O64         O  0.49629195  0.55801058  0.05639406    -0.80200
O65         O  0.57974799  0.51844684  0.01701055    -0.80200
O66         O  0.42466451  0.45750177  0.02401383    -0.80200
C67         C  0.42139124  0.47636865  0.05258539     1.09500
C68         C  0.57935425  0.49903320  0.04593926     1.09400
C69         C  0.51490686  0.40068390  0.04277606     1.09500
C70         C  0.51892458  0.58088917  0.04261445     1.09400
O71         O  0.46517877  0.57368729  0.98742954    -0.80200
O72         O  0.51434584  0.42578048  0.96587592    -0.80300
O73         O  0.44795754  0.47764413  0.95319548    -0.80200
O74         O  0.55399354  0.49331652  0.94612018    -0.80200
O75         O  0.57935180  0.45792682  0.98538056    -0.80200
O76         O  0.41876742  0.51612119  0.99000688    -0.80200
O77         O  0.50361994  0.55255640  0.94447797    -0.80200
O78         O  0.45742621  0.40617177  0.97765969    -0.80200
Co79       Co  0.45973408  0.53377750  0.02351804     1.51500
Co80       Co  0.53012323  0.45406007  0.01193007     1.51700
Co81       Co  0.47210150  0.45348934  0.99458076     1.51600
Co82       Co  0.54008848  0.53274745  0.98000779     1.51500
O83         O  0.50034678  0.50035017  0.00266863    -1.42100
C84         C  0.47936662  0.57556601  0.95577295     1.09400
C85         C  0.48940760  0.40082995  0.96300190     1.09500
C86         C  0.41880860  0.49592316  0.96177434     1.09400
C87         C  0.58254459  0.47584535  0.95641410     1.09400
C88         C  0.59853993  0.93577148  0.77473451     0.80200
N89         N  0.58042830  0.94232575  0.74301044    -0.78100
C90         C  0.58375346  0.91865479  0.71470848     0.82600
N91         N  0.60498378  0.88831264  0.71856187    -0.78100
C92         C  0.62289592  0.88116283  0.75000544     0.82700
N93         N  0.61960026  0.90502916  0.77787776    -0.79800
C94         C  0.75202045  0.70533349  0.78328700     0.03100
C95         C  0.77983304  0.70481879  0.75608456    -0.13100
C96         C  0.77996296  0.73150935  0.72907861     0.00600
C97         C  0.75191335  0.75829285  0.72902088    -0.11600
C98         C  0.72388340  0.75878361  0.75580284     0.03100
C99         C  0.72414828  0.73243284  0.78307842    -0.11000
H100        H  0.80149340  0.68399014  0.75614709     0.08700
H101        H  0.75220022  0.77914823  0.70826374     0.06200
H102        H  0.70270633  0.73304596  0.80415181     0.06000
C103        C  0.91877229  0.71902791  0.56135195     0.80200
N104        N  0.93651800  0.75125528  0.55601311    -0.78100
C105        C  0.93020860  0.77948341  0.57923594     0.82600
N106        N  0.90661025  0.77505961  0.60779975    -0.78100
C107        C  0.88907980  0.74322374  0.61371190     0.82700
N108        N  0.89522445  0.71537830  0.59033887    -0.79800
C109        C  0.77861979  0.57189339  0.94794364     0.80200
N110        N  0.74989908  0.54757429  0.95105032    -0.78100
C111        C  0.72079557  0.54881655  0.92701394     0.82600
N112        N  0.72111448  0.57426451  0.90039156    -0.78100
C113        C  0.74927055  0.59831883  0.89716480     0.82700
N114        N  0.77770218  0.59685060  0.92095478    -0.79800
C115        C  0.25752678  0.20385527  0.77863571     0.03100
C116        C  0.26171082  0.23052142  0.80527195    -0.13100
C117        C  0.23568760  0.25898021  0.80831153     0.00600
C118        C  0.20535054  0.26090284  0.78451443    -0.11600
C119        C  0.20129969  0.23471492  0.75736213     0.03100
C120        C  0.22712682  0.20594758  0.75490018    -0.11000
H121        H  0.28558266  0.22957883  0.82320527     0.08700
H122        H  0.18545511  0.28325202  0.78657486     0.06200
H123        H  0.22431705  0.18585894  0.73364229     0.06000
C124        C  0.27918773  0.42715439  0.93328354     0.80200
N125        N  0.24951486  0.43395172  0.95631695    -0.78100
C126        C  0.21956324  0.41105623  0.95709708     0.82600
N127        N  0.21973272  0.38200108  0.93477560    -0.78100
C128        C  0.24849429  0.37493007  0.91180622     0.82700
N129        N  0.27816411  0.39761622  0.91117310    -0.79800
C130        C  0.41474097  0.05061883  0.77717454     0.80200
N131        N  0.43473489  0.05200523  0.74537763    -0.78100
C132        C  0.42550264  0.07683457  0.71941074     0.82600
N133        N  0.39650503  0.09997043  0.72549941    -0.78100
C134        C  0.37653772  0.09910648  0.75679552     0.82700
N135        N  0.38582992  0.07445613  0.78256039    -0.79800
C136        C  0.05636573  0.21951730  0.59718297     0.80200
N137        N  0.07660171  0.21798992  0.62816737    -0.78100
C138        C  0.09913792  0.24562481  0.63786717     0.82600
N139        N  0.10137086  0.27512507  0.61614610    -0.78100
C140        C  0.08149172  0.27757993  0.58515020     0.82700
N141        N  0.05880406  0.24956905  0.57566038    -0.79800
O142        O  0.47146101  0.00223206  0.92629573    -0.80200
O143        O  0.48785838  0.95747110  0.07425920    -0.80200
O144        O  0.45809908  0.93964787  0.97456794    -0.80200
O145        O  0.44600066  0.04164225  0.99359218    -0.80200
O146        O  0.49157649  0.91147414  0.01615775    -0.80300
O147        O  0.48661675  0.06699190  0.95877385    -0.80200
O148        O  0.44388287  0.99411372  0.05257951    -0.80200
O149        O  0.48944126  0.94847648  0.90585087    -0.80200
C150        C  0.47068310  0.97761197  0.90149957     1.09500
C151        C  0.45543321  0.97173951  0.07622126     1.09400
C152        C  0.46433178  0.91168282  0.99368871     1.09500
C153        C  0.45641379  0.06966704  0.97692248     1.09400
O154        O  0.55766491  0.04278168  0.98258914    -0.80200
O155        O  0.56637764  0.94148404  0.99982256    -0.80300
O156        O  0.55206141  0.98125628  0.93058003    -0.80200
O157        O  0.51208143  0.02308442  0.07649584    -0.80200
O158        O  0.55896741  0.98767239  0.05791553    -0.80200
O159        O  0.53707785  0.03553086  0.91024875    -0.80200
O160        O  0.51727090  0.06966497  0.01985208    -0.80200
O161        O  0.53237216  0.91543661  0.96031968    -0.80200
Co162      Co  0.51655509  0.01996056  0.95604627     1.51500
Co163      Co  0.52594095  0.95180217  0.03487524     1.51700
Co164      Co  0.50295588  0.96271619  0.95422361     1.51600
Co165      Co  0.48032075  0.02968417  0.03328024     1.51500
O166        O  0.50557044  0.99095855  0.00153784    -1.42100
C167        C  0.54773634  0.07030890  0.00118658     1.09400
C168        C  0.55966752  0.91339335  0.98192961     1.09500
C169        C  0.55500047  0.00590940  0.90593338     1.09400
C170        C  0.54473228  0.01007053  0.08026312     1.09400
C171        C  0.26803206  0.76235351  0.76975715     0.03100
C172        C  0.23783838  0.73826672  0.76782673    -0.13100
C173        C  0.21383384  0.73860006  0.73796130     0.00600
C174        C  0.21913067  0.76417862  0.71034151    -0.11600
C175        C  0.24860842  0.78891045  0.71235106     0.03100
C176        C  0.27326114  0.78768247  0.74167291    -0.11000
H177        H  0.23334924  0.71859975  0.78927353     0.08700
H178        H  0.20020749  0.76506123  0.68752715     0.06200
H179        H  0.29658800  0.80626450  0.74227987     0.06000
C180        C  0.42236142  0.71470788  0.91545638     0.80200
N181        N  0.43169376  0.74439089  0.93567033    -0.78100
C182        C  0.41336704  0.77678976  0.93069308     0.82600
N183        N  0.38612276  0.77895140  0.90521130    -0.78100
C184        C  0.37663688  0.74973249  0.88508889     0.82700
N185        N  0.39486899  0.71784603  0.89049009    -0.79800
C186        C  0.22462598  0.94831106  0.57326731     0.80200
N187        N  0.22625580  0.92262858  0.59944540    -0.78100
C188        C  0.25558826  0.89930716  0.60188683     0.82600
N189        N  0.28402007  0.90153238  0.57722744    -0.78100
C190        C  0.28339656  0.92714805  0.55053182     0.82700
N191        N  0.25348178  0.95059329  0.54875040    -0.79800
C192        C  0.07781236  0.57821135  0.77769235     0.80200
N193        N  0.07366932  0.55518199  0.74896756    -0.78100
C194        C  0.09004860  0.56325562  0.71616944     0.82600
N195        N  0.10955784  0.59469232  0.71268094    -0.78100
C196        C  0.11318890  0.61780875  0.74102072     0.82700
N197        N  0.09760034  0.60900856  0.77333095    -0.79800
C198        C  0.75958319  0.26745575  0.20767360     0.03100
C199        C  0.73239054  0.24079289  0.21281836    -0.13100
C200        C  0.73559572  0.21621646  0.24150775     0.00600
C201        C  0.76577084  0.21791733  0.26501583    -0.11600
C202        C  0.79349289  0.24394835  0.25965957     0.03100
C203        C  0.79016965  0.26891384  0.23115532    -0.11000
H204        H  0.70888642  0.23903041  0.19451978     0.08700
H205        H  0.76748464  0.19902345  0.28749482     0.06200
H206        H  0.81118865  0.28968618  0.22746741     0.06000
C207        C  0.92953400  0.28471978  0.41882738     0.80200
N208        N  0.95232027  0.25603708  0.42704883    -0.78100
C209        C  0.95188905  0.22546780  0.40619505     0.82600
N210        N  0.92839868  0.22402130  0.37745798    -0.78100
C211        C  0.90579067  0.25251599  0.36925842     0.82700
N212        N  0.90648304  0.28245382  0.39017741    -0.79800
C213        C  0.77873991  0.41447944  0.05447725     0.80200
N214        N  0.77785555  0.38564009  0.07721414    -0.78100
C215        C  0.74838904  0.37977229  0.09971203     0.82600
N216        N  0.71913114  0.40336290  0.09946219    -0.78100
C217        C  0.71894207  0.43258869  0.07700460     0.82700
N218        N  0.74898563  0.43813201  0.05435279    -0.79800
C219        C  0.56455347  0.08710597  0.27413118     0.80200
N220        N  0.59554165  0.10813759  0.27702275    -0.78100
C221        C  0.62109769  0.10969331  0.24958676     0.82600
N222        N  0.61528206  0.09055393  0.21907231    -0.78100
C223        C  0.58476483  0.06970208  0.21542164     0.82700
N224        N  0.55935725  0.06772080  0.24313886    -0.79800
O225        O  0.94868490  0.55890759  0.00146584    -0.80200
O226        O  0.05333381  0.54923063  0.02049425    -0.80200
O227        O  0.98670943  0.53731185  0.07146464    -0.80200
O228        O  0.03787286  0.51268844  0.92377157    -0.80200
O229        O  0.04310087  0.52348660  0.09106782    -0.80300
O230        O  0.00038502  0.55755540  0.94225714    -0.80200
O231        O  0.08257577  0.51205843  0.98236352    -0.80200
O232        O  0.92182006  0.52111977  0.03786702    -0.80200
C233        C  0.91960489  0.54957802  0.01882036     1.09500
C234        C  0.08259807  0.54040877  0.00255092     1.09400
C235        C  0.01171467  0.53911002  0.09639270     1.09500
C236        C  0.02459339  0.54443951  0.92007716     1.09400
O237        O  0.96980788  0.49114812  0.92071834    -0.80200
O238        O  0.00950429  0.46169494  0.06992358    -0.80300
O239        O  0.94635909  0.45158042  0.01662390    -0.80200
O240        O  0.05086141  0.44160630  0.00267308    -0.80200
O241        O  0.07579042  0.47842863  0.04069792    -0.80200
O242        O  0.92053125  0.48924807  0.97697275    -0.80200
O243        O  0.00447551  0.44557400  0.94126589    -0.80200
O244        O  0.95260069  0.47448324  0.08937864    -0.80200
Co245      Co  0.96219123  0.52396285  0.96288105     1.51500
Co246      Co  0.02830599  0.50786850  0.04366168     1.51700
Co247      Co  0.96956926  0.49219348  0.04246078     1.51600
Co248      Co  0.04136270  0.47824308  0.96482225     1.51500
O249        O  0.00048941  0.50080375  0.99657687    -1.42100
C250        C  0.98315318  0.45936214  0.91735842     1.09400
C251        C  0.98418304  0.45936325  0.09491115     1.09500
C252        C  0.91925295  0.46028434  0.99609820     1.09400
C253        C  0.07842970  0.44976517  0.02208868     1.09400
C254        C  0.22440451  0.06831671  0.41339733     0.80200
N255        N  0.25438837  0.06665191  0.43607066    -0.78100
C256        C  0.28416806  0.08923508  0.43098424     0.82600
N257        N  0.28353652  0.11329372  0.40290924    -0.78100
C258        C  0.25380486  0.11530529  0.38024136     0.82700
N259        N  0.22457902  0.09273996  0.38583475    -0.79800
C260        C  0.25039240  0.22197202  0.26469653     0.03100
C261        C  0.22450318  0.25077305  0.26689114    -0.13100
C262        C  0.22344983  0.27758859  0.23984370     0.00600
C263        C  0.24806605  0.27472135  0.20985898    -0.11600
C264        C  0.27448073  0.24610014  0.20743663     0.03100
C265        C  0.27537105  0.21986243  0.23512269    -0.11000
H266        H  0.20518405  0.25231154  0.28976648     0.08700
H267        H  0.24678137  0.29496036  0.18857473     0.06200
H268        H  0.29575314  0.19787510  0.23392067     0.06000
C269        C  0.05728061  0.42158146  0.22800869     0.80200
N270        N  0.08494350  0.39613156  0.22596728    -0.78100
C271        C  0.11022138  0.39157488  0.25269756     0.82600
N272        N  0.10756662  0.41314657  0.28256211    -0.78100
C273        C  0.08016472  0.43913175  0.28568691     0.82700
N274        N  0.05498077  0.44326820  0.25808736    -0.79800
C275        C  0.44323835  0.26429034  0.06892645     0.80200
N276        N  0.44791432  0.23503106  0.04639403    -0.78100
C277        C  0.42349657  0.20654122  0.04826166     0.82600
N278        N  0.39461233  0.20786552  0.07280296    -0.78100
C279        C  0.38964695  0.23684072  0.09509499     0.82700
N280        N  0.41406499  0.26459179  0.09281323    -0.79800
C281        C  0.77336936  0.27591463  0.74285455     0.03100
C282        C  0.74596606  0.27285207  0.77030809    -0.13100
C283        C  0.72047631  0.24407708  0.77029543     0.00600
C284        C  0.72202375  0.21849818  0.74214594    -0.11600
C285        C  0.74884625  0.22149624  0.71416104     0.03100
C286        C  0.77447536  0.25016688  0.71478267    -0.11000
H287        H  0.74423260  0.29301032  0.79167253     0.08700
H288        H  0.70209216  0.19648186  0.74181887     0.06200
H289        H  0.79521996  0.25252662  0.69323573     0.06000
C290        C  0.91345042  0.44189998  0.71673688     0.80200
N291        N  0.93327834  0.44645121  0.74802847    -0.78100
C292        C  0.92703184  0.42430850  0.77729791     0.82600
N293        N  0.90099955  0.39797427  0.77483318    -0.78100
C294        C  0.88110820  0.39294840  0.74428773     0.82700
N295        N  0.88749777  0.41500465  0.71539115    -0.79800
C296        C  0.58205177  0.20716474  0.93582871     0.80200
N297        N  0.60667104  0.20832933  0.90741553    -0.78100
C298        C  0.60875386  0.23772361  0.88541808     0.82600
N299        N  0.58577097  0.26638563  0.89216770    -0.78100
C300        C  0.56098727  0.26643773  0.92035643     0.82700
N301        N  0.55902887  0.23651677  0.94228900    -0.79800
C302        C  0.72409506  0.08730473  0.54724150     0.80200
N303        N  0.75394507  0.06363220  0.54556567    -0.78100
C304        C  0.78259327  0.06637973  0.56980807     0.82600
N305        N  0.78075823  0.09265937  0.59550468    -0.78100
C306        C  0.75146568  0.11614260  0.59767785     0.82700
N307        N  0.72332345  0.11327793  0.57348739    -0.79800
C308        C  0.73444116  0.76095538  0.22433339     0.03100
C309        C  0.76016649  0.73216709  0.22734191    -0.13100
C310        C  0.78737712  0.73213689  0.25460906     0.00600
C311        C  0.78841044  0.76118905  0.27916467    -0.11600
C312        C  0.76217967  0.78966806  0.27687668     0.03100
C313        C  0.73547116  0.78963855  0.24920307    -0.11000
H314        H  0.75894726  0.70973174  0.20837995     0.08700
H315        H  0.80934114  0.76152573  0.30026089     0.06200
H316        H  0.71519340  0.81164381  0.24734266     0.06000
C317        C  0.72795743  0.93061998  0.43498363     0.80200
N318        N  0.75653848  0.95489156  0.43775856    -0.78100
C319        C  0.78664600  0.95286473  0.41451378     0.82600
N320        N  0.78770432  0.92641029  0.38886759    -0.78100
C321        C  0.75964253  0.90220914  0.38587425     0.82700
N322        N  0.72996721  0.90463393  0.40895576    -0.79800
C323        C  0.94313118  0.57951247  0.23188737     0.80200
N324        N  0.91711368  0.60651643  0.23162776    -0.78100
C325        C  0.89444348  0.61313268  0.26051167     0.82600
N326        N  0.89807033  0.59217696  0.29058753    -0.78100
C327        C  0.92391811  0.56474810  0.29178635     0.82700
N328        N  0.94645657  0.55841528  0.26215814    -0.79800
C329        C  0.59468823  0.78007508  0.05893371     0.80200
N330        N  0.57530907  0.74845626  0.05444366    -0.78100
C331        C  0.58090572  0.71976046  0.07747016     0.82600
N332        N  0.60551978  0.72330170  0.10496069    -0.78100
C333        C  0.62473647  0.75434331  0.11007184     0.82700
N334        N  0.61929698  0.78248655  0.08685135    -0.79800
C335        C  0.24736516  0.72528356  0.28974808     0.03100
C336        C  0.24318912  0.70044980  0.26136850    -0.13100
C337        C  0.26904691  0.69963090  0.23253631     0.00600
C338        C  0.29879519  0.72428025  0.23175934    -0.11600
C339        C  0.30273100  0.74960057  0.25983790     0.03100
C340        C  0.27758418  0.74927073  0.28911315    -0.11000
H341        H  0.21962744  0.68209730  0.26138199     0.08700
H342        H  0.31833667  0.72422697  0.20903519     0.06200
H343        H  0.28056276  0.76896750  0.31071061     0.06000
C344        C  0.44756136  0.91140446  0.27685168     0.80200
N345        N  0.42452878  0.88225812  0.28026942    -0.78100
C346        C  0.40152020  0.87253315  0.25296722     0.82600
N347        N  0.40167203  0.89221334  0.22211035    -0.78100
C348        C  0.42417631  0.92117424  0.21765032     0.82700
N349        N  0.44736083  0.93090649  0.24520295    -0.79800
C350        C  0.08714370  0.77777140  0.42841904     0.80200
N351        N  0.07951114  0.75038877  0.45240277    -0.78100
C352        C  0.09998535  0.71877602  0.45097941     0.82600
N353        N  0.12745177  0.71508468  0.42542015    -0.78100
C354        C  0.13500140  0.74203702  0.40169299     0.82700
N355        N  0.11475792  0.77306625  0.40342627    -0.79800
C356        C  0.28062782  0.54033226  0.09004620     0.80200
N357        N  0.28182545  0.56535632  0.11684509    -0.78100
C358        C  0.25465540  0.59072822  0.12129977     0.82600
N359        N  0.22516080  0.59091454  0.09841783    -0.78100
C360        C  0.22291074  0.56623980  0.07107743     0.82700
N361        N  0.25097734  0.54089128  0.06681316    -0.79800
O362        O  0.97297270  0.92046263  0.50795678    -0.80200
O363        O  0.01497443  0.06786662  0.53618250    -0.80200
O364        O  0.05664596  0.00040423  0.55439992    -0.80200
O365        O  0.95119979  0.01514389  0.54646626    -0.80200
O366        O  0.08153352  0.03806299  0.51698215    -0.80300
O367        O  0.92392537  0.97719424  0.50887758    -0.80200
O368        O  0.95800116  0.08726014  0.52365657    -0.80200
O369        O  0.00936932  0.94058949  0.55190847    -0.80200
C370        C  0.98667462  0.91751322  0.53941494     1.09500
C371        C  0.98883539  0.09197689  0.53975358     1.09400
C372        C  0.08452313  0.01918415  0.54536012     1.09500
C373        C  0.92284800  0.99660857  0.53766291     1.09400
O374        O  0.95401298  0.00018225  0.43852733    -0.80200
O375        O  0.05697518  0.01852089  0.44713772    -0.80300
O376        O  0.04110821  0.92156425  0.48414114    -0.80200
O377        O  0.99254190  0.06970042  0.46024671    -0.80200
O378        O  0.04892774  0.08888527  0.47370456    -0.80200
O379        O  0.00411237  0.94105146  0.44022723    -0.80200
O380        O  0.92781765  0.03714103  0.47678550    -0.80200
O381        O  0.08692079  0.97986695  0.48260448    -0.80200
Co382      Co  0.96619952  0.96206189  0.47424493     1.51500
Co383      Co  0.03331763  0.04172361  0.48949731     1.51700
Co384      Co  0.04605034  0.96286583  0.51798864     1.51600
Co385      Co  0.97502017  0.04082864  0.50561668     1.51500
O386        O  0.00520088  0.99490865  0.49664763    -1.42100
C387        C  0.92583395  0.01912334  0.44771179     1.09400
C388        C  0.08625468  0.00027366  0.45440640     1.09500
C389        C  0.02734144  0.91813182  0.45286104     1.09400
C390        C  0.01819463  0.09392692  0.45752133     1.09400
C391        C  0.08621468  0.84404775  0.41499099    -0.21400
C392        C  0.06765767  0.81350589  0.42943032    -0.09400
C393        C  0.03160187  0.81818847  0.44448195     0.29400
C394        C  0.01563640  0.85302188  0.44677725    -0.21400
C395        C  0.03561645  0.88361999  0.43485853    -0.09400
C396        C  0.07062199  0.87877644  0.41810481     0.29500
F397        F  0.09129725  0.90793068  0.40803545    -0.19900
H398        H  0.11403892  0.84148886  0.40321538     0.17800
H399        H  0.98909980  0.85649925  0.46099931     0.17800
F400        F  0.01244113  0.78955503  0.45820613    -0.19900
C401        C  0.29442556  0.64774363  0.19724084    -0.21400
C402        C  0.26523337  0.67256496  0.20355662    -0.09400
C403        C  0.23237252  0.67049147  0.18305594     0.29400
C404        C  0.22895933  0.64375618  0.15643962    -0.21400
C405        C  0.25815911  0.61855020  0.15007029    -0.09400
C406        C  0.29101939  0.62081673  0.17102763     0.29500
F407        F  0.32015124  0.59727184  0.16639271    -0.19900
H408        H  0.31976953  0.64889890  0.21312564     0.17800
H409        H  0.20344573  0.64286312  0.14083406     0.17800
F410        F  0.20392319  0.69470986  0.18835200    -0.19900
C411        C  0.20551741  0.76344511  0.32806657    -0.21400
C412        C  0.21866963  0.72872447  0.31856435    -0.09400
C413        C  0.20444149  0.69821974  0.33678921     0.29400
C414        C  0.17749472  0.70269495  0.36420477    -0.21400
C415        C  0.16434893  0.73755553  0.37366465    -0.09400
C416        C  0.17890922  0.76798258  0.35545213     0.29500
F417        F  0.16796194  0.80228392  0.36423864    -0.19900
H418        H  0.21577286  0.78728715  0.31406442     0.17800
H419        H  0.16670606  0.67884251  0.37778703     0.17800
F420        F  0.21704621  0.66427556  0.32865757    -0.19900
C421        C  0.35354498  0.83221330  0.22611496    -0.21400
C422        C  0.37716662  0.84022883  0.25538719    -0.09400
C423        C  0.37712901  0.81697729  0.28574935     0.29400
C424        C  0.35371436  0.78673799  0.28661046    -0.21400
C425        C  0.33028180  0.77905424  0.25726681    -0.09400
C426        C  0.33038277  0.80206280  0.22699616     0.29500
F427        F  0.30673866  0.79641508  0.19896625    -0.19900
H428        H  0.35250147  0.84953063  0.20240267     0.17800
H429        H  0.35356451  0.76942376  0.31037437     0.17800
F430        F  0.39935556  0.82337341  0.31465525    -0.19900
C431        C  0.85576990  0.02169137  0.45107387    -0.21400
C432        C  0.88862534  0.01161205  0.43187533    -0.09400
C433        C  0.88555258  0.98755316  0.40252722     0.29400
C434        C  0.85152306  0.97064849  0.39564434    -0.21400
C435        C  0.81971245  0.97708801  0.41784693    -0.09400
C436        C  0.82162670  0.00455255  0.44426741     0.29500
F437        F  0.79125111  0.01352651  0.46487567    -0.19900
H438        H  0.85703449  0.04069100  0.47344129     0.17800
H439        H  0.85096198  0.95071952  0.37409025     0.17800
F440        F  0.91606981  0.97800783  0.38223176    -0.19900
C441        C  0.67813933  0.78524682  0.14106535    -0.21400
C442        C  0.65196804  0.75688897  0.14024090    -0.09400
C443        C  0.65280041  0.73056082  0.16812281     0.29400
C444        C  0.67962283  0.73226117  0.19535800    -0.21400
C445        C  0.70579126  0.76030747  0.19578710    -0.09400
C446        C  0.70481026  0.78698642  0.16860890     0.29500
F447        F  0.73043400  0.81399110  0.16807847    -0.19900
H448        H  0.67843760  0.80578051  0.12004473     0.17800
H449        H  0.67991109  0.71166187  0.21634196     0.17800
F450        F  0.62763102  0.70318712  0.16945804    -0.19900
C451        C  0.83371508  0.69043750  0.22521419    -0.21400
C452        C  0.81491995  0.70193570  0.25679070    -0.09400
C453        C  0.82216239  0.68400054  0.28972618     0.29400
C454        C  0.84771063  0.65494536  0.29076098    -0.21400
C455        C  0.86669634  0.64341886  0.25909170    -0.09400
C456        C  0.85926792  0.66162174  0.22616005     0.29500
F457        F  0.87629572  0.65162903  0.19456371    -0.19900
H458        H  0.82872031  0.70401573  0.19960707     0.17800
H459        H  0.85271185  0.64159207  0.31646249     0.17800
F460        F  0.80387146  0.69391977  0.32070284    -0.19900
C461        C  0.79353007  0.83996305  0.30969071    -0.21400
C462        C  0.76169525  0.81869868  0.30434077    -0.09400
C463        C  0.72958056  0.82474877  0.32583516     0.29400
C464        C  0.72927542  0.85182710  0.35223749    -0.21400
C465        C  0.76094025  0.87357945  0.35762624    -0.09400
C466        C  0.79322609  0.86737230  0.33592129     0.29500
F467        F  0.82464052  0.88738991  0.34003586    -0.19900
H468        H  0.81852737  0.83546365  0.29332914     0.17800
H469        H  0.70407301  0.85569451  0.36843364     0.17800
F470        F  0.69877911  0.80381449  0.32189755    -0.19900
C471        C  0.81799843  0.01098732  0.54670203    -0.21400
C472        C  0.81695189  0.04286701  0.56765138    -0.09400
C473        C  0.85005960  0.05314826  0.58559970     0.29400
C474        C  0.88375990  0.03461309  0.57927265    -0.21400
C475        C  0.88584278  0.00556326  0.55474389    -0.09400
C476        C  0.85202107  0.99227355  0.54043711     0.29500
F477        F  0.85211473  0.96281750  0.51832321    -0.19900
H478        H  0.79274165  0.00128879  0.53404472     0.17800
H479        H  0.90896253  0.04525166  0.59132594     0.17800
F480        F  0.85099858  0.08287472  0.60728196    -0.19900
C481        C  0.71653045  0.18671695  0.66562832    -0.21400
C482        C  0.74967775  0.19504148  0.68392990    -0.09400
C483        C  0.78338337  0.17799919  0.67311569     0.29400
C484        C  0.78367933  0.15282199  0.64482307    -0.21400
C485        C  0.75049372  0.14416577  0.62656474    -0.09400
C486        C  0.71682713  0.16169912  0.63709893     0.29500
F487        F  0.68400394  0.15415355  0.62056216    -0.19900
H488        H  0.69031013  0.19979618  0.67337198     0.17800
H489        H  0.81006953  0.13996205  0.63733345     0.17800
F490        F  0.81586499  0.18483803  0.69060560    -0.19900
C491        C  0.66817862  0.27174476  0.80623026    -0.21400
C492        C  0.69142747  0.24169009  0.79911424    -0.09400
C493        C  0.68695900  0.20999625  0.81986335     0.29400
C494        C  0.65987350  0.20875327  0.84760019    -0.21400
C495        C  0.63657815  0.23899317  0.85504576    -0.09400
C496        C  0.64091093  0.27050462  0.83361812     0.29500
F497        F  0.61912068  0.30041502  0.83896996    -0.19900
H498        H  0.67103281  0.29630246  0.79029597     0.17800
H499        H  0.65743501  0.18412119  0.86343406     0.17800
F500        F  0.70956996  0.18067289  0.81409477    -0.19900
C501        C  0.80884768  0.32528744  0.71118751    -0.21400
C502        C  0.80059118  0.30614278  0.74324254    -0.09400
C503        C  0.81885250  0.31584094  0.77536818     0.29400
C504        C  0.84448360  0.34420969  0.77532868    -0.21400
C505        C  0.85293162  0.36346647  0.74327338    -0.09400
C506        C  0.83475986  0.35356419  0.71105517     0.29500
F507        F  0.84220978  0.37066409  0.67924788    -0.19900
H508        H  0.79503395  0.31844878  0.68611850     0.17800
H509        H  0.85797169  0.35081069  0.80062323     0.17800
F510        F  0.81293740  0.29717058  0.80665010    -0.19900
C511        C  0.34931832  0.27233965  0.13842578    -0.21400
C512        C  0.35826979  0.23881472  0.12200166    -0.09400
C513        C  0.33799982  0.20791332  0.13273997     0.29400
C514        C  0.31028732  0.21059374  0.15991825    -0.21400
C515        C  0.30204489  0.24403747  0.17683208    -0.09400
C516        C  0.32169994  0.27499758  0.16546530     0.29500
F517        F  0.31560911  0.30764807  0.18163969    -0.19900
H518        H  0.36416047  0.29669950  0.13078869     0.17800
H519        H  0.29541708  0.18638041  0.16797745     0.17800
F520        F  0.34559588  0.17489012  0.11794747    -0.19900
C521        C  0.16507919  0.35624973  0.27753379    -0.21400
C522        C  0.14040972  0.36341130  0.24880496    -0.09400
C523        C  0.14484210  0.34306790  0.21643871     0.29400
C524        C  0.17235230  0.31590559  0.21356917    -0.21400
C525        C  0.19603894  0.30810166  0.24266747    -0.09400
C526        C  0.19256873  0.32892104  0.27456850     0.29500
F527        F  0.21609364  0.32312809  0.30273195    -0.19900
H528        H  0.16293881  0.37157006  0.30254780     0.17800
H529        H  0.17457605  0.30028592  0.18872549     0.17800
F530        F  0.12255921  0.34896876  0.18738394    -0.19900
C531        C  0.15652273  0.99695206  0.44957415    -0.21400
C532        C  0.12215691  0.01013599  0.43605701    -0.09400
C533        C  0.12300049  0.03900457  0.41097705     0.29400
C534        C  0.15661602  0.05638846  0.40279125    -0.21400
C535        C  0.19041874  0.04569243  0.41917487    -0.09400
C536        C  0.19032355  0.01463323  0.44143986     0.29500
F537        F  0.22251041  0.00203684  0.45635332    -0.19900
H538        H  0.15699553  0.97460328  0.46865561     0.17800
H539        H  0.15557707  0.07970553  0.38494739     0.17800
F540        F  0.09099735  0.05257711  0.39639738    -0.19900
C541        C  0.22025237  0.17264427  0.30054453    -0.21400
C542        C  0.25161051  0.19426599  0.29365190    -0.09400
C543        C  0.28381571  0.18954271  0.31472094     0.29400
C544        C  0.28439787  0.16383100  0.34266990    -0.21400
C545        C  0.25297384  0.14204198  0.34991091    -0.09400
C546        C  0.22087735  0.14654421  0.32809636     0.29500
F547        F  0.18985022  0.12606164  0.33328348    -0.19900
H548        H  0.19529514  0.17585924  0.28434682     0.17800
H549        H  0.30949993  0.16113610  0.35870871     0.17800
F550        F  0.31437116  0.21050502  0.30885006    -0.19900
C551        C  0.99223602  0.45811384  0.85107185    -0.21400
C552        C  0.97660281  0.44183277  0.88221926    -0.09400
C553        C  0.94722565  0.41736840  0.87826933     0.29400
C554        C  0.93259993  0.41069853  0.84383133    -0.21400
C555        C  0.94647416  0.42886370  0.81266880    -0.09400
C556        C  0.97747407  0.45176586  0.81660170     0.29500
F557        F  0.99264327  0.46915865  0.78757535    -0.19900
H558        H  0.01442816  0.47777661  0.85379578     0.17800
H559        H  0.90889616  0.39267786  0.84202536     0.17800
F560        F  0.93057488  0.40240548  0.90793296    -0.19900
C561        C  0.95421339  0.58959258  0.16577179    -0.21400
C562        C  0.96580072  0.57305042  0.19829598    -0.09400
C563        C  0.99779776  0.55035773  0.19734656     0.29400
C564        C  0.01552450  0.54211024  0.16407531    -0.21400
C565        C  0.00153707  0.55629028  0.13139004    -0.09400
C566        C  0.97171947  0.58137169  0.13282203     0.29500
F567        F  0.95797176  0.59647439  0.10202210    -0.19900
H568        H  0.93027496  0.60781125  0.16529525     0.17800
H569        H  0.03843514  0.52260374  0.16364969     0.17800
F570        F  0.01134499  0.53538733  0.22820988    -0.19900
C571        C  0.98099376  0.45592846  0.16323069    -0.21400
C572        C  0.99470350  0.44218121  0.12990274    -0.09400
C573        C  0.02535691  0.41796828  0.13037208     0.29400
C574        C  0.04390762  0.41042404  0.16260985    -0.21400
C575        C  0.03271524  0.42669761  0.19563406    -0.09400
C576        C  0.99978773  0.44822532  0.19592028     0.29500
F577        F  0.98638716  0.46268738  0.22737458    -0.19900
H578        H  0.95753279  0.47475594  0.16367606     0.17800
H579        H  0.06848306  0.39311099  0.16102655     0.17800
F580        F  0.03924695  0.40337302  0.09910184    -0.19900
C581        C  0.15287681  0.54276392  0.99734715    -0.21400
C582        C  0.11923995  0.55661966  0.01258479    -0.09400
C583        C  0.12165537  0.57936535  0.04319619     0.29400
C584        C  0.15584838  0.58371455  0.06078096    -0.21400
C585        C  0.18869110  0.56617888  0.04809632    -0.09400
C586        C  0.18733486  0.54777015  0.01470281     0.29500
F587        F  0.21904644  0.53392472  0.99924129    -0.19900
H588        H  0.15226583  0.52592314  0.97328755     0.17800
H589        H  0.15598035  0.59929699  0.08567739     0.17800
F590        F  0.09055399  0.59503441  0.05817218    -0.19900
C591        C  0.81468079  0.44813277  0.00596538    -0.21400
C592        C  0.81350274  0.42101448  0.03273822    -0.09400
C593        C  0.84688605  0.40145429  0.04017424     0.29400
C594        C  0.88092211  0.41185209  0.02464402    -0.21400
C595        C  0.88279913  0.44165850  0.00112905    -0.09400
C596        C  0.84889676  0.45802580  0.98980528     0.29500
F597        F  0.84892019  0.48529541  0.96504894    -0.19900
H598        H  0.78938611  0.46261768  0.99849139     0.17800
H599        H  0.90627888  0.39812782  0.03327207     0.17800
F600        F  0.84764169  0.37381151  0.06449926    -0.19900
C601        C  0.96657342  0.15966139  0.39849123    -0.21400
C602        C  0.97473757  0.19289230  0.41535961    -0.09400
C603        C  0.00304343  0.19357167  0.44176274     0.29400
C604        C  0.02049985  0.16119381  0.45276020    -0.21400
C605        C  0.00962297  0.12780298  0.43803067    -0.09400
C606        C  0.98355780  0.12748286  0.40981434     0.29500
F607        F  0.97278962  0.09572227  0.39460918    -0.19900
H608        H  0.94543896  0.15804984  0.37771727     0.17800
H609        H  0.04025241  0.16194676  0.47485383     0.17800
F610        F  0.01276961  0.22506338  0.45810420    -0.19900
C611        C  0.70941470  0.15814442  0.22231118    -0.21400
C612        C  0.70818711  0.18760180  0.24604002    -0.09400
C613        C  0.68086816  0.18962124  0.27353726     0.29400
C614        C  0.65344329  0.16300582  0.27595697    -0.21400
C615        C  0.65328892  0.13424573  0.25093670    -0.09400
C616        C  0.68241372  0.13137315  0.22480545     0.29500
F617        F  0.68454388  0.10322662  0.20107038    -0.19900
H618        H  0.73105482  0.15620793  0.20153613     0.17800
H619        H  0.63153516  0.16577408  0.29633820     0.17800
F620        F  0.67988982  0.21806401  0.29693575    -0.19900
C621        C  0.72185295  0.31338166  0.17417756    -0.21400
C622        C  0.75573137  0.29428284  0.17836305    -0.09400
C623        C  0.78611654  0.30178891  0.15520256     0.29400
C624        C  0.78301633  0.32891859  0.12913422    -0.21400
C625        C  0.74962291  0.34918738  0.12565079    -0.09400
C626        C  0.71867368  0.34064382  0.14807479     0.29500
F627        F  0.68550946  0.35873403  0.14527863    -0.19900
H628        H  0.69810734  0.30782117  0.19182703     0.17800
H629        H  0.80722713  0.33440656  0.11213547     0.17800
F630        F  0.81880876  0.28281818  0.15771336    -0.19900
C631        C  0.83379341  0.27987783  0.29990161    -0.21400
C632        C  0.82470481  0.24618894  0.28512644    -0.09400
C633        C  0.84418047  0.21484028  0.29627477     0.29400
C634        C  0.87136673  0.21718659  0.32297738    -0.21400
C635        C  0.87950940  0.25077461  0.33884841    -0.09400
C636        C  0.86096813  0.28232134  0.32640863     0.29500
F637        F  0.86847417  0.31562842  0.33997132    -0.19900
H638        H  0.81897704  0.30429244  0.29173492     0.17800
H639        H  0.88534862  0.19255495  0.33179131     0.17800
F640        F  0.83682455  0.18196350  0.28149047    -0.19900
C641        C  0.02466689  0.56468574  0.82068183    -0.21400
C642        C  0.06301451  0.57038900  0.81440426    -0.09400
C643        C  0.08711496  0.57307574  0.84425428     0.29400
C644        C  0.07333723  0.56881372  0.87958239    -0.21400
C645        C  0.03517015  0.56255834  0.88604258    -0.09400
C646        C  0.01075380  0.56094882  0.85629379     0.29500
F647        F  0.97401192  0.55302640  0.86155760    -0.19900
H648        H  0.00557978  0.56318192  0.79808921     0.17800
H649        H  0.09288223  0.56829795  0.90190180     0.17800
F650        F  0.12443483  0.57826774  0.83909691    -0.19900
C651        C  0.12500790  0.98379592  0.58721184    -0.21400
C652        C  0.12217043  0.00988047  0.55968061    -0.09400
C653        C  0.15511314  0.02006148  0.54088162     0.29400
C654        C  0.18883280  0.00097838  0.54627345    -0.21400
C655        C  0.19062816  0.97213398  0.57117910    -0.09400
C656        C  0.15864861  0.96520325  0.59309627     0.29500
F657        F  0.15870150  0.93885188  0.61883089    -0.19900
H658        H  0.10039509  0.97579108  0.60259094     0.17800
H659        H  0.21313232  0.00795422  0.52998189     0.17800
F660        F  0.15426373  0.04669242  0.51544977    -0.19900
C661        C  0.15856563  0.70726595  0.76426523    -0.21400
C662        C  0.18426048  0.71106616  0.73558146    -0.09400
C663        C  0.18399091  0.68612623  0.70677522     0.29400
C664        C  0.15974778  0.65652232  0.70787818    -0.21400
C665        C  0.13536453  0.65147341  0.73765707    -0.09400
C666        C  0.13411041  0.67800484  0.76529761     0.29500
F667        F  0.10992722  0.67543966  0.79386523    -0.19900
H668        H  0.15818604  0.72655463  0.78646204     0.17800
H669        H  0.16123525  0.63677975  0.68613584     0.17800
F670        F  0.20884409  0.68907628  0.67880671    -0.19900
C671        C  0.23118112  0.84931007  0.68870988    -0.21400
C672        C  0.25229598  0.81741228  0.68476935    -0.09400
C673        C  0.27607275  0.81293299  0.65451850     0.29400
C674        C  0.27784930  0.83999484  0.62786402    -0.21400
C675        C  0.25586303  0.87175902  0.63118346    -0.09400
C676        C  0.23299028  0.87639271  0.66238424     0.29500
F677        F  0.21253738  0.90719860  0.66782920    -0.19900
H678        H  0.21310963  0.85314212  0.71224766     0.17800
H679        H  0.29573550  0.83573401  0.60429407     0.17800
F680        F  0.29695336  0.78217763  0.65054414    -0.19900
C681        C  0.30664756  0.72526178  0.81236328    -0.21400
C682        C  0.29486472  0.75962710  0.80021032    -0.09400
C683        C  0.30912480  0.79072800  0.81718451     0.29400
C684        C  0.33522953  0.78729332  0.84505418    -0.21400
C685        C  0.34756008  0.75287456  0.85672591    -0.09400
C686        C  0.33243615  0.72178485  0.84035765     0.29500
F687        F  0.34232709  0.68786601  0.85128199    -0.19900
H688        H  0.29634092  0.70083252  0.79972914     0.17800
H689        H  0.34606304  0.81172949  0.85723863     0.17800
F690        F  0.29742480  0.82445692  0.80737008    -0.19900
C691        C  0.60978598  0.84424896  0.04080495    -0.21400
C692        C  0.58911076  0.81243837  0.03459728    -0.09400
C693        C  0.56287012  0.81302673  0.00619797     0.29400
C694        C  0.55592714  0.84516877  0.98654158    -0.21400
C695        C  0.57459259  0.87759816  0.99485780    -0.09400
C696        C  0.60272624  0.87625715  0.02140349     0.29500
F697        F  0.62222192  0.90644892  0.03015716    -0.19900
H698        H  0.63077401  0.84496851  0.06176750     0.17800
H699        H  0.53421594  0.84516593  0.96626646     0.17800
F700        F  0.54270785  0.78310130  0.99824887    -0.19900
C701        C  0.45808274  0.84338801  0.99738292    -0.21400
C702        C  0.44537343  0.87706545  0.98372613    -0.09400
C703        C  0.41929636  0.87669918  0.95526030     0.29400
C704        C  0.40860741  0.84405074  0.93939138    -0.21400
C705        C  0.42325693  0.81047824  0.95113354    -0.09400
C706        C  0.44724583  0.81042657  0.98132458     0.29500
F707        F  0.46081646  0.77876156  0.99493742    -0.19900
H708        H  0.47797703  0.84255584  0.01937866     0.17800
H709        H  0.38962077  0.84545503  0.91668155     0.17800
F710        F  0.40547823  0.90803923  0.94107996    -0.19900
C711        C  0.58634631  0.04925067  0.11499651    -0.21400
C712        C  0.56337787  0.01888214  0.11384308    -0.09400
C713        C  0.54963294  0.00355974  0.14617420     0.29400
C714        C  0.55727156  0.01969186  0.17941232    -0.21400
C715        C  0.57899520  0.05109900  0.18069076    -0.09400
C716        C  0.59446787  0.06522992  0.14819702     0.29500
F717        F  0.61508770  0.09602259  0.14805949    -0.19900
H718        H  0.59583850  0.06201749  0.09007550     0.17800
H719        H  0.54542959  0.00818831  0.20400177     0.17800
F720        F  0.52675894  0.97436929  0.14528946    -0.19900
C721        C  0.44257276  0.98724206  0.14008829    -0.21400
C722        C  0.43468483  0.96516222  0.11001024    -0.09400
C723        C  0.41934452  0.93088148  0.11576840     0.29400
C724        C  0.41415401  0.91797084  0.15099653    -0.21400
C725        C  0.42522805  0.93854195  0.18129229    -0.09400
C726        C  0.43824825  0.97398949  0.17557588     0.29500
F727        F  0.44835380  0.99512048  0.20392881    -0.19900
H728        H  0.45555088  0.01343146  0.13603383     0.17800
H729        H  0.40387731  0.89058685  0.15428853     0.17800
F730        F  0.41296927  0.90846740  0.08730433    -0.19900
C731        C  0.46032164  0.13811952  0.97754199    -0.21400
C732        C  0.44186839  0.10615442  0.98846626    -0.09400
C733        C  0.41439692  0.10894574  0.01610103     0.29400
C734        C  0.40797141  0.14184534  0.03412494    -0.21400
C735        C  0.42846699  0.17319066  0.02531508    -0.09400
C736        C  0.45371785  0.17129161  0.99564223     0.29500
F737        F  0.47271425  0.20111896  0.98460448    -0.19900
H738        H  0.48150817  0.13707677  0.95627519     0.17800
H739        H  0.38776781  0.14215774  0.05626293     0.17800
F740        F  0.39524892  0.07933105  0.02756212    -0.19900
C741        C  0.59136203  0.10807873  0.96424289    -0.21400
C742        C  0.56556257  0.10593551  0.99318173    -0.09400
C743        C  0.55063280  0.13866498  0.00741860     0.29400
C744        C  0.55752814  0.17188147  0.98987956    -0.21400
C745        C  0.57972640  0.17325587  0.95813451    -0.09400
C746        C  0.59836966  0.14105996  0.94685894     0.29500
F747        F  0.62155568  0.14050380  0.91742100    -0.19900
H748        H  0.60391517  0.08367423  0.95288101     0.17800
H749        H  0.54419087  0.19627809  0.00032351     0.17800
F750        F  0.52716989  0.13839393  0.03665870    -0.19900
C751        C  0.02373078  0.12236716  0.58818461    -0.21400
C752        C  0.99726538  0.12506242  0.56051400    -0.09400
C753        C  0.98703689  0.15966009  0.54754799     0.29400
C754        C  0.00543296  0.19066289  0.56023986    -0.21400
C755        C  0.03381480  0.18759155  0.58637940    -0.09400
C756        C  0.04180817  0.15301841  0.60103096     0.29500
F757        F  0.06922951  0.14802717  0.62579877    -0.19900
H758        H  0.03236065  0.09598258  0.59827989     0.17800
H759        H  0.99839708  0.21685890  0.54869942     0.17800
F760        F  0.96180719  0.16321862  0.52044254    -0.19900
C761        C  0.46701691  0.98021675  0.83406906    -0.21400
C762        C  0.44985074  0.98577993  0.86810774    -0.09400
C763        C  0.41759605  0.00777091  0.87041858     0.29400
C764        C  0.40517802  0.02691013  0.84013651    -0.21400
C765        C  0.42475007  0.02479432  0.80679215    -0.09400
C766        C  0.45470041  0.99964026  0.80355361     0.29500
F767        F  0.47337424  0.99515301  0.77158685    -0.19900
H768        H  0.49191628  0.96331275  0.83172436     0.17800
H769        H  0.38134304  0.04502260  0.84358391     0.17800
F770        F  0.39965663  0.01286014  0.90273945    -0.19900
C771        C  0.15348728  0.39600574  0.97390883    -0.21400
C772        C  0.18538018  0.41750358  0.97987079    -0.09400
C773        C  0.18299040  0.44487858  0.00630704     0.29400
C774        C  0.14851155  0.45290940  0.02331758    -0.21400
C775        C  0.11588444  0.43373428  0.01422324    -0.09400
C776        C  0.11930043  0.40382342  0.99089218     0.29500
F777        F  0.08904678  0.38349413  0.98249965    -0.19900
H778        H  0.15421056  0.37386560  0.95467632     0.17800
H779        H  0.14691867  0.47571668  0.04180114     0.17800
F780        F  0.21355003  0.46440194  0.01507346    -0.19900
C781        C  0.14941198  0.20925786  0.72083664    -0.21400
C782        C  0.17215494  0.23874202  0.72958243    -0.09400
C783        C  0.16907710  0.27103386  0.70958405     0.29400
C784        C  0.14440569  0.27329844  0.68062399    -0.21400
C785        C  0.12241003  0.24341422  0.67085428    -0.09400
C786        C  0.12459917  0.21148051  0.69187162     0.29500
F787        F  0.10377147  0.18196217  0.68402731    -0.19900
H788        H  0.15142943  0.18418975  0.73609698     0.17800
H789        H  0.14341838  0.29831456  0.66523710     0.17800
F790        F  0.19150189  0.29969707  0.71663935    -0.19900
C791        C  0.30147540  0.16976293  0.73858050    -0.21400
C792        C  0.28670323  0.17575232  0.77343182    -0.09400
C793        C  0.30089267  0.15581233  0.80284752     0.29400
C794        C  0.32979471  0.13051230  0.79728587    -0.21400
C795        C  0.34504144  0.12488196  0.76238657    -0.09400
C796        C  0.33025189  0.14464308  0.73294747     0.29500
F797        F  0.34333862  0.13984854  0.69854576    -0.19900
H798        H  0.29117097  0.18514052  0.71562888     0.17800
H799        H  0.34052503  0.11567850  0.82039419     0.17800
F800        F  0.28658127  0.16053606  0.83681767    -0.19900
C801        C  0.21085563  0.29448956  0.86018129    -0.21400
C802        C  0.24035255  0.28714358  0.83599763    -0.09400
C803        C  0.27352838  0.30724069  0.83797826     0.29400
C804        C  0.27642169  0.33533617  0.86318622    -0.21400
C805        C  0.24640887  0.34352286  0.88692950    -0.09400
C806        C  0.21378414  0.32208773  0.88565008     0.29500
F807        F  0.18420763  0.32787081  0.90843107    -0.19900
H808        H  0.18534353  0.27879155  0.85922755     0.17800
H809        H  0.30192143  0.35102948  0.86364133     0.17800
F810        F  0.30248959  0.30062963  0.81463533    -0.19900
C811        C  0.84913265  0.54688860  0.02154958    -0.21400
C812        C  0.88199126  0.56313313  0.00763677    -0.09400
C813        C  0.87877800  0.58623276  0.97745194     0.29400
C814        C  0.84469677  0.58984185  0.95961929    -0.21400
C815        C  0.81261324  0.57078646  0.97121135    -0.09400
C816        C  0.81471973  0.55066379  0.00356558     0.29500
F817        F  0.78413145  0.53349605  0.01702999    -0.19900
H818        H  0.85054789  0.52913713  0.04493986     0.17800
H819        H  0.84423558  0.60635887  0.93531423     0.17800
F820        F  0.90918489  0.60314638  0.96312323    -0.19900
C821        C  0.98237861  0.81797589  0.55548550    -0.21400
C822        C  0.94766200  0.81526999  0.57345128    -0.09400
C823        C  0.92932537  0.84730657  0.58547746     0.29400
C824        C  0.94452716  0.88124162  0.57778924    -0.21400
C825        C  0.97838074  0.88385472  0.55866484    -0.09400
C826        C  0.99778121  0.85201665  0.54834217     0.29500
F827        F  0.03034940  0.85397504  0.52908890    -0.19900
H828        H  0.99716931  0.79380766  0.54625641     0.17800
H829        H  0.92856523  0.90554935  0.58455184     0.17800
F830        F  0.89527334  0.84612968  0.60219060    -0.19900
C831        C  0.71847455  0.65919752  0.81993231    -0.21400
C832        C  0.75174559  0.67759348  0.81195577    -0.09400
C833        C  0.78408312  0.66994981  0.83202433     0.29400
C834        C  0.78298708  0.64410395  0.85961573    -0.21400
C835        C  0.74966391  0.62549892  0.86770779    -0.09400
C836        C  0.71727991  0.63342393  0.84753855     0.29500
F837        F  0.68417740  0.61705313  0.85478297    -0.19900
H838        H  0.69328083  0.66484043  0.80468188     0.17800
H839        H  0.80834877  0.63873584  0.87466767     0.17800
F840        F  0.81638592  0.68821242  0.82571515    -0.19900
C841        C  0.82883522  0.76557241  0.69597201    -0.21400
C842        C  0.80996895  0.73287797  0.70149827    -0.09400
C843        C  0.81846205  0.70288456  0.67933961     0.29400
C844        C  0.84473793  0.70617103  0.65118143    -0.21400
C845        C  0.86292471  0.73935799  0.64483802    -0.09400
C846        C  0.85504411  0.76895752  0.66806414     0.29500
F847        F  0.87192252  0.80154318  0.66369687    -0.19900
H848        H  0.82281288  0.78883613  0.71313523     0.17800
H849        H  0.85025964  0.68288166  0.63394735     0.17800
F850        F  0.80018083  0.67102832  0.68385742    -0.19900
C851        C  0.61193172  0.95145922  0.83934213    -0.21400
C852        C  0.59383866  0.96025724  0.80667934    -0.09400
C853        C  0.56947971  0.99065400  0.80627471     0.29400
C854        C  0.56035327  0.00885738  0.83864132    -0.21400
C855        C  0.57514725  0.99700977  0.87181535    -0.09400
C856        C  0.60270589  0.96952806  0.87154190     0.29500
F857        F  0.61878443  0.95832713  0.90289602    -0.19900
H858        H  0.63179619  0.92909766  0.84059885     0.17800
H859        H  0.53901019  0.02997435  0.83815920     0.17800
F860        F  0.55253290  0.00142332  0.77525129    -0.19900
C861        C  0.65168043  0.82568519  0.72251339    -0.21400
C862        C  0.64646662  0.84809052  0.75309715    -0.09400
C863        C  0.66475529  0.83888077  0.78561277     0.29400
C864        C  0.68893243  0.80889543  0.78672119    -0.21400
C865        C  0.69524619  0.78774386  0.75560705    -0.09400
C866        C  0.67580720  0.79584141  0.72370476     0.29500
F867        F  0.68038420  0.77501718  0.69355546    -0.19900
H868        H  0.63768731  0.83154690  0.69725521     0.17800
H869        H  0.70372932  0.80291980  0.81153536     0.17800
F870        F  0.66003816  0.85902247  0.81617135    -0.19900
C871        C  0.51895104  0.33254898  0.04123056    -0.21400
C872        C  0.50447253  0.36452834  0.05728396    -0.09400
C873        C  0.47361860  0.36180623  0.08101284     0.29400
C874        C  0.45555956  0.32874390  0.08584953    -0.21400
C875        C  0.46738135  0.29727843  0.06697613    -0.09400
C876        C  0.50055047  0.29913183  0.04592675     0.29500
F877        F  0.51431194  0.26924907  0.02867992    -0.19900
H878        H  0.54263596  0.33391061  0.02267867     0.17800
H879        H  0.43084844  0.32853352  0.10313058     0.17800
F880        F  0.45926164  0.39171946  0.09784729    -0.19900
C881        C  0.53260368  0.36602942  0.92301562    -0.21400
C882        C  0.50060550  0.36607401  0.94538183    -0.09400
C883        C  0.48580650  0.33244411  0.95652738     0.29400
C884        C  0.50482429  0.29978630  0.94783080    -0.21400
C885        C  0.53851680  0.30017723  0.92754554    -0.09400
C886        C  0.55139822  0.33386864  0.91431240     0.29500
F887        F  0.58382519  0.33648150  0.89497309    -0.19900
H888        H  0.54470534  0.39139391  0.91399908     0.17800
H889        H  0.49375224  0.27434755  0.95775737     0.17800
F890        F  0.45477908  0.33123304  0.97811084    -0.19900
C891        C  0.65226925  0.44508725  0.09485581    -0.21400
C892        C  0.68494651  0.45636146  0.07643934    -0.09400
C893        C  0.68335775  0.48870435  0.05619348     0.29400
C894        C  0.64880984  0.50608957  0.05032861    -0.21400
C895        C  0.61534463  0.49151912  0.06453090    -0.09400
C896        C  0.61793459  0.46250411  0.08928314     0.29500
F897        F  0.58685730  0.44842731  0.10534414    -0.19900
H898        H  0.65252423  0.42115327  0.11191404     0.17800
H899        H  0.64795963  0.52895646  0.03185727     0.17800
F900        F  0.71462611  0.50239991  0.04031885    -0.19900
C901        C  0.62278055  0.51126041  0.91438497    -0.21400
C902        C  0.62031217  0.48564098  0.94228889    -0.09400
C903        C  0.65332657  0.47621294  0.96110047     0.29400
C904        C  0.68656882  0.49565922  0.95513285    -0.21400
C905        C  0.68771840  0.52426389  0.92990736    -0.09400
C906        C  0.65577166  0.53027970  0.90811426     0.29500
F907        F  0.65511114  0.55605431  0.88189164    -0.19900
H908        H  0.59819444  0.51861859  0.89886847     0.17800
H909        H  0.71102273  0.48909963  0.97111789     0.17800
F910        F  0.65296649  0.44981592  0.98678899    -0.19900
C911        C  0.56128416  0.61797900  0.08018454    -0.21400
C912        C  0.52816871  0.61557097  0.06038791    -0.09400
C913        C  0.51108573  0.64787003  0.04798568     0.29400
C914        C  0.52779690  0.68172064  0.05394320    -0.21400
C915        C  0.56177647  0.68412518  0.07268160    -0.09400
C916        C  0.57777493  0.65172619  0.08666777     0.29500
F917        F  0.61082818  0.65212514  0.10455920    -0.19900
H918        H  0.57575418  0.59345035  0.08863503     0.17800
H919        H  0.51455211  0.70595785  0.04319157     0.17800
F920        F  0.47936262  0.64641917  0.02806164    -0.19900
C921        C  0.49146366  0.63981142  0.94169406    -0.21400
C922        C  0.47023358  0.60857388  0.93521534    -0.09400
C923        C  0.43475699  0.61235211  0.91967874     0.29400
C924        C  0.42024805  0.64690322  0.91205098    -0.21400
C925        C  0.44033907  0.67847771  0.92077692    -0.09400
C926        C  0.47669909  0.67451670  0.93474479     0.29500
F927        F  0.49753973  0.70403838  0.94265289    -0.19900
H928        H  0.51843531  0.63743041  0.95483440     0.17800
H929        H  0.39221105  0.64892167  0.90116990     0.17800
F930        F  0.41301316  0.58278624  0.91450714    -0.19900
C931        C  0.34484493  0.52002164  0.10827620    -0.21400
C932        C  0.31375554  0.51564931  0.08532891    -0.09400
C933        C  0.31682191  0.49029447  0.05693584     0.29400
C934        C  0.35149074  0.47361223  0.04905549    -0.21400
C935        C  0.38370105  0.48229721  0.06902247    -0.09400
C936        C  0.37940538  0.50378080  0.10020058     0.29500
F937        F  0.40922921  0.51145759  0.12136204    -0.19900
H938        H  0.34338846  0.53801303  0.13144298     0.17800
H939        H  0.35372017  0.45634813  0.02533909     0.17800
F940        F  0.28714266  0.48314612  0.03553460    -0.19900
C941        C  0.31425383  0.48284597  0.95293963    -0.21400
C942        C  0.31359316  0.44999854  0.93357117    -0.09400
C943        C  0.34712910  0.43797578  0.91643967     0.29400
C944        C  0.38082659  0.45599049  0.92220512    -0.21400
C945        C  0.38229479  0.48627682  0.94522368    -0.09400
C946        C  0.34814746  0.50094367  0.95867749     0.29500
F947        F  0.34770496  0.53112331  0.97980097    -0.19900
H948        H  0.28879211  0.49369687  0.96514070     0.17800
H949        H  0.40634638  0.44420053  0.91096093     0.17800
F950        F  0.34835443  0.40722445  0.89618413    -0.19900
C951        C  0.04959776  0.51047121  0.35636019    -0.21400
C952        C  0.07071754  0.50008890  0.38682406    -0.09400
C953        C  0.09777580  0.47226736  0.38218530     0.29400
C954        C  0.10129092  0.45367732  0.34908692    -0.21400
C955        C  0.07809722  0.46205907  0.31943571    -0.14400
C956        C  0.05301988  0.49170921  0.32319107     0.29500
F957        F  0.03086668  0.50198528  0.29528893    -0.19900
H958        H  0.02860758  0.53183252  0.35876714     0.17800
H959        H  0.12152295  0.43160375  0.34727327     0.17800
F960        F  0.11965229  0.46157810  0.41021910    -0.19900
C961        C  0.92488035  0.54008942  0.39194271    -0.21400
C962        C  0.94641778  0.50790225  0.39208911    -0.09400
C963        C  0.95589450  0.49184337  0.35843713     0.29400
C964        C  0.94719414  0.50961249  0.32578045    -0.21400
C965        C  0.92867727  0.54351814  0.32594784    -0.09400
C966        C  0.91628621  0.55780590  0.35953265     0.29500
F967        F  0.89824170  0.59036156  0.36159372    -0.19900
H968        H  0.91699596  0.55332770  0.41716430     0.17800
H969        H  0.95605916  0.49736981  0.30036346     0.17800
F970        F  0.97555302  0.46014580  0.35700734    -0.19900
C971        C  0.09790691  0.52765994  0.61932103    -0.21400
C972        C  0.06953606  0.50154091  0.61855770    -0.09400
C973        C  0.05266125  0.49127559  0.65182328     0.29400
C974        C  0.06065358  0.51013619  0.68394707    -0.21400
C975        C  0.08606656  0.53912144  0.68376654    -0.09400
C976        C  0.10616091  0.54620016  0.65127458     0.29500
F977        F  0.13262787  0.57238101  0.64953333    -0.19900
H978        H  0.11197644  0.53583019  0.59447333     0.17800
H979        H  0.04537577  0.50325182  0.70851920     0.17800
F980        F  0.02617800  0.46508548  0.65295630    -0.19900
C981        C  0.94576571  0.49417789  0.68420483    -0.21400
C982        C  0.92066380  0.46481152  0.68359918    -0.09400
C983        C  0.90342668  0.45666385  0.65024405     0.29400
C984        C  0.91333953  0.47511074  0.61845389    -0.21400
C985        C  0.94068712  0.50230794  0.61840247    -0.09400
C986        C  0.95544208  0.51296298  0.65209712     0.29500
F987        F  0.98069003  0.54019465  0.65383453    -0.19900
H988        H  0.95892155  0.50193952  0.70935049     0.17800
H989        H  0.90094560  0.46639443  0.59323814     0.17800
F990        F  0.87819647  0.42953326  0.64746754    -0.19900
C991        C  0.06556413  0.31362049  0.52963780    -0.21400
C992        C  0.08314569  0.31155601  0.56349321    -0.09400
C993        C  0.09954073  0.34331340  0.57776620     0.29400
C994        C  0.09415900  0.37677189  0.56073667    -0.21400
C995        C  0.07336070  0.37905027  0.52897290    -0.09400
C996        C  0.06084117  0.34710849  0.51240499     0.29500
F997        F  0.04049974  0.34883401  0.48151910    -0.19900
H998        H  0.05344351  0.28973093  0.51751270     0.17800
H999        H  0.10329919  0.40128147  0.57412191     0.17800
F1000       F  0.11797003  0.34296763  0.60978070    -0.19900
C1001       C  0.94331331  0.31957232  0.47511555    -0.21400
C1002       C  0.93037053  0.31898465  0.43934910    -0.09400
C1003       C  0.91968267  0.35196032  0.42256459     0.29400
C1004       C  0.92479676  0.38478770  0.44023322    -0.21400
C1005       C  0.94056604  0.38533871  0.47461214    -0.09400
C1006       C  0.94827541  0.35264330  0.49276689     0.29500
F1007       F  0.96467286  0.35294702  0.52583916    -0.19900
H1008       H  0.95130460  0.29464054  0.48871612     0.17800
H1009       H  0.92017293  0.40992226  0.42552742     0.17800
F1010       F  0.90797499  0.35311706  0.38771457    -0.19900
C1011       C  0.96214977  0.65633598  0.48994103    -0.21400
C1012       C  0.94717082  0.62288516  0.50073148    -0.09400
C1013       C  0.91859793  0.62234693  0.52720598     0.29400
C1014       C  0.90803389  0.65417981  0.54513213    -0.21400
C1015       C  0.92587094  0.68724586  0.53728107    -0.09400
C1016       C  0.95177371  0.68833756  0.50812820     0.29500
F1017       F  0.96874617  0.71973247  0.49848089    -0.19900
H1018       H  0.98434853  0.65732083  0.46968620     0.17800
H1019       H  0.88719859  0.65234229  0.56661335     0.17800
F1020       F  0.90269605  0.59058141  0.53758601    -0.19900
C1021       C  0.05397099  0.65571874  0.52027506    -0.21400
C1022       C  0.07108375  0.62244500  0.51082847    -0.09400
C1023       C  0.10109221  0.62230787  0.48598677     0.29400
C1024       C  0.11154255  0.65423844  0.46855412    -0.21400
C1025       C  0.09198723  0.68711892  0.47495660    -0.09400
C1026       C  0.06415051  0.68788143  0.50236626     0.29500
F1027       F  0.04555997  0.71910787  0.51070586    -0.19900
H1028       H  0.03059637  0.65636254  0.53925362     0.17800
H1029       H  0.13379721  0.65249518  0.44843194     0.17800
F1030       F  0.11876390  0.59078260  0.47669921    -0.19900
C1031       C  0.42301159  0.08802795  0.65297725    -0.21400
C1032       C  0.44412145  0.07753677  0.68337494    -0.09400
C1033       C  0.48175675  0.06700412  0.67829538     0.29400
C1034       C  0.49695537  0.06470648  0.64313058    -0.21400
C1035       C  0.47456077  0.07187797  0.61274216    -0.09400
C1036       C  0.43785706  0.08470150  0.61797406     0.29500
F1037       F  0.41517934  0.09035618  0.58912122    -0.19900
H1038       H  0.39393554  0.09633551  0.65603900     0.17800
H1039       H  0.52500798  0.05364396  0.63947925     0.17800
F1040       F  0.50323506  0.05741446  0.70699342    -0.19900
C1041       C  0.53451048  0.95024132  0.67876701    -0.21400
C1042       C  0.56488029  0.92586105  0.67979741    -0.09400
C1043       C  0.57745159  0.90948413  0.64705548     0.29400
C1044       C  0.56148725  0.91952587  0.61392644    -0.21400
C1045       C  0.53238368  0.94519513  0.61312459    -0.09400
C1046       C  0.51826766  0.95961384  0.64582333     0.29500
F1047       F  0.49006276  0.98454016  0.64560970    -0.19900
H1048       H  0.52383339  0.96281208  0.70341084     0.17800
H1049       H  0.57335030  0.90899688  0.58882443     0.17800
F1050       F  0.60670609  0.88564366  0.64658650    -0.19900
C1051       C  0.35321192  0.05829724  0.50349759    -0.21400
C1052       C  0.38753491  0.06955266  0.48813954    -0.09400
C1053       C  0.38636149  0.09300874  0.45785890     0.29400
C1054       C  0.35237413  0.10086655  0.44089250    -0.21400
C1055       C  0.31852281  0.08607273  0.45368771    -0.09400
C1056       C  0.31900325  0.06667883  0.48665936     0.29500
F1057       F  0.28663191  0.05487967  0.50207663    -0.19900
H1058       H  0.35292324  0.04091456  0.52720629     0.17800
H1059       H  0.35307469  0.11691915  0.41627627     0.17800
F1060       F  0.41829415  0.10604045  0.44252519    -0.19900
C1061       C  0.35345571  0.96574454  0.48200444    -0.21400
C1062       C  0.38561537  0.94459671  0.48918498    -0.09400
C1063       C  0.38170640  0.91391656  0.51160071     0.29400
C1064       C  0.34765283  0.90715772  0.52952497    -0.21400
C1065       C  0.31662218  0.93078122  0.52567943    -0.09400
C1066       C  0.31938019  0.95908447  0.50006708     0.29500
F1067       F  0.28990919  0.98162068  0.49380744    -0.19900
H1068       H  0.35529554  0.98921823  0.46439930     0.17800
H1069       H  0.34636297  0.88432295  0.54799018     0.17800
F1070       F  0.41143234  0.89165164  0.51804840    -0.19900
C1071       C  0.48746352  0.05279059  0.33697740    -0.21400
C1072       C  0.49963378  0.06663781  0.37027374    -0.09400
C1073       C  0.52809695  0.09271819  0.37033843     0.29400
C1074       C  0.54718882  0.10120028  0.33833961    -0.21400
C1075       C  0.53838098  0.08386235  0.30557682    -0.09400
C1076       C  0.50662139  0.06133405  0.30472980     0.29500
F1077       F  0.49543862  0.04572075  0.27336148    -0.19900
H1078       H  0.46547893  0.03273124  0.33627040     0.17800
H1079       H  0.57055119  0.11965923  0.33989378     0.17800
F1080       F  0.53964877  0.10776752  0.40188707    -0.19900
C1081       C  0.46644361  0.90393336  0.34173866    -0.21400
C1082       C  0.47163687  0.92162294  0.30815827    -0.09400
C1083       C  0.49856740  0.94940325  0.30598253     0.29400
C1084       C  0.51737417  0.96079926  0.33726491    -0.21400
C1085       C  0.50941106  0.94506316  0.37120125    -0.09400
C1086       C  0.48482972  0.91557564  0.37283851     0.29500
F1087       F  0.47693231  0.89925247  0.40503559    -0.19900
H1088       H  0.44664480  0.88200384  0.34457320     0.17800
H1089       H  0.53596566  0.98381916  0.33541565     0.17800
F1090       F  0.50574032  0.96657767  0.27412490    -0.19900
C1091       C  0.65508646  0.05115406  0.47758654    -0.21400
C1092       C  0.62229197  0.07079467  0.48693806    -0.09400
C1093       C  0.62546505  0.10013162  0.51110717     0.29400
C1094       C  0.65927372  0.10650597  0.52879389    -0.21400
C1095       C  0.69099490  0.08407834  0.52278937    -0.09400
C1096       C  0.68912700  0.05780120  0.49514266     0.29500
F1097       F  0.71968059  0.03762127  0.48591495    -0.19900
H1098       H  0.65389232  0.02889456  0.45845571     0.17800
H1099       H  0.65980496  0.12806360  0.54873443     0.17800
F1100       F  0.59522928  0.12121046  0.51968588    -0.19900
C1101       C  0.65590729  0.96161775  0.50587885    -0.21400
C1102       C  0.62263647  0.94772970  0.49111910    -0.09400
C1103       C  0.62575446  0.92288677  0.46221683     0.29400
C1104       C  0.66044609  0.91620982  0.44556098    -0.21400
C1105       C  0.69310140  0.93352034  0.45749852    -0.09400
C1106       C  0.69089135  0.95435692  0.48941933     0.29500
F1107       F  0.72225431  0.96836924  0.50421175    -0.19900
H1108       H  0.65468644  0.98014309  0.52866930     0.17800
H1109       H  0.66114432  0.89891444  0.42182403     0.17800
F1110       F  0.59495273  0.90729081  0.44783347    -0.19900
loop_ 
_geom_bond_atom_site_label_1 
_geom_bond_atom_site_label_2 
_geom_bond_distance 
_geom_bond_site_symmetry_2 
_ccdc_geom_bond_type 
O1            C9   1.270       .  A
O1          Co21   1.965       .  S
O2           C10   1.258       .  A
O2          Co22   1.972       .  S
O3           C11   1.267       .  A
O3          Co23   1.986   1_565  S
O4           C12   1.288       .  A
O4          Co24   2.070   1_565  S
O5           C11   1.270       .  A
O5          Co22   1.989       .  S
O6           C12   1.270       .  A
O6          Co21   1.930       .  S
O7           C10   1.264       .  A
O7          Co24   2.019   1_565  S
O8            C9   1.281       .  A
O8          Co23   2.039   1_565  S
C9         C1102   1.489       .  S
C10        C1062   1.490       .  S
C11        C1045   1.463       .  S
C12        C1085   1.479       .  S
O13          C26   1.287       .  A
O13         Co21   2.068   1_545  S
O14          C27   1.266       .  A
O14         Co22   1.983   1_545  S
O15          C28   1.260       .  A
O15         Co23   1.971       .  S
O16          C29   1.267       .  A
O16         Co24   1.960       .  S
O17          C29   1.285       .  A
O17         Co22   2.057   1_545  S
O18          C28   1.266       .  A
O18         Co21   2.022   1_545  S
O19          C26   1.268       .  A
O19         Co24   1.922       .  S
O20          C27   1.268       .  A
O20         Co23   1.984       .  S
Co21         O25   2.025   1_565  S
Co22         O25   2.033   1_565  S
Co23         O25   2.038       .  S
Co24         O25   2.024       .  S
C26        C1072   1.473       .  S
C27        C1035   1.462       .  S
C28        C1092   1.492       .  S
C29        C1052   1.495       .  S
O30          C38   1.288       .  A
O30         Co50   2.068   1_655  S
O31          C39   1.264       .  A
O31         Co51   1.977   1_655  S
O32          C40   1.267       .  A
O32         Co52   1.963   1_655  S
O33          C41   1.256       .  A
O33         Co53   1.965       .  S
O34          C40   1.281       .  A
O34         Co51   2.051   1_655  S
O35          C41   1.265       .  A
O35         Co50   2.041   1_655  S
O36          C39   1.261       .  A
O36         Co53   1.968       .  S
O37          C38   1.269       .  A
O37         Co52   1.917   1_655  S
C38        C1012   1.471       .  S
C39        C1005   1.446       .  S
C40         C962   1.492       .  S
C41         C985   1.499       .  S
O42          C55   1.269       .  A
O42         Co50   1.963       .  S
O43          C56   1.257       .  A
O43         Co51   1.963       .  S
O44          C57   1.290       .  A
O44         Co52   2.068       .  S
O45          C58   1.269       .  A
O45         Co53   1.991   1_455  S
O46          C58   1.267       .  A
O46         Co51   1.979       .  S
O47          C57   1.269       .  A
O47         Co50   1.919       .  S
O48          C55   1.281       .  A
O48         Co53   2.045   1_455  S
O49          C56   1.266       .  A
O49         Co52   2.035       .  S
Co50         O54   2.027       .  S
Co51         O54   2.041       .  S
Co52         O54   2.022       .  S
Co53         O54   2.028   1_655  S
C55         C972   1.492       .  S
C56         C952   1.501       .  S
C57        C1022   1.474       .  S
C58         C995   1.459       .  S
O59          C67   1.266       .  A
O59         Co79   1.979       .  S
O60          C68   1.270       .  A
O60         Co80   1.959       .  S
O61          C69   1.288       .  A
O61         Co81   2.080   1_554  S
O62          C70   1.265       .  A
O62         Co82   1.989   1_554  S
O63          C69   1.267       .  A
O63         Co80   1.933       .  S
O64          C70   1.274       .  A
O64         Co79   2.006       .  S
O65          C68   1.284       .  A
O65         Co82   2.041   1_554  S
O66          C67   1.266       .  A
O66         Co81   2.004   1_554  S
C67         C935   1.483       .  S
C68         C895   1.485       .  S
C69         C872   1.484       .  S
C70         C912   1.478       .  S
O71          C84   1.269       .  A
O71         Co79   1.992   1_556  S
O72          C85   1.290       .  A
O72         Co80   2.078   1_556  S
O73          C86   1.271       .  A
O73         Co81   1.968       .  S
O74          C87   1.261       .  A
O74         Co82   1.972       .  S
O75          C87   1.260       .  A
O75         Co80   2.007   1_556  S
O76          C86   1.279       .  A
O76         Co79   2.035   1_556  S
O77          C84   1.272       .  A
O77         Co82   1.989       .  S
O78          C85   1.271       .  A
O78         Co81   1.931       .  S
Co79         O83   2.037       .  S
Co80         O83   2.031       .  S
Co81         O83   2.031   1_556  S
Co82         O83   2.034   1_556  S
C84         C922   1.468       .  S
C85         C882   1.485       .  S
C86         C945   1.490       .  S
C87         C902   1.487       .  S
C88         C852   1.491       .  S
C88          N89   1.362       .  A
C88          N93   1.359       .  A
N89          C90   1.363       .  A
C90        C1042   1.481       .  S
C90          N91   1.353       .  A
N91          C92   1.354       .  A
C92         C862   1.479       .  S
C92          N93   1.356       .  A
C94         C832   1.470       .  S
C94          C95   1.403       .  A
C94          C99   1.402       .  A
C95          C96   1.399       .  A
C95         H100   1.084       .  S
C96         C842   1.469       .  S
C96          C97   1.399       .  A
C97          C98   1.397       .  A
C97         H101   1.084       .  S
C98         C865   1.470       .  S
C98          C99   1.397       .  A
C99         H102   1.084       .  S
C103       C1015   1.487       .  S
C103        N104   1.364       .  A
C103        N108   1.359       .  A
N104        C105   1.363       .  A
C105        C822   1.478       .  S
C105        N106   1.352       .  A
N106        C107   1.351       .  A
C107        C845   1.478       .  S
C107        N108   1.355       .  A
C109        C815   1.493       .  S
C109        N110   1.371       .  A
C109        N114   1.355       .  A
N110        C111   1.372       .  A
C111        C905   1.496       .  S
C111        N112   1.357       .  A
N112        C113   1.350       .  A
C113        C835   1.477       .  S
C113        N114   1.349       .  A
C115        C792   1.472       .  S
C115        C116   1.399       .  A
C115        C120   1.402       .  A
C116        C117   1.397       .  A
C116        H121   1.084       .  S
C117        C802   1.467       .  S
C117        C118   1.402       .  A
C118        C119   1.400       .  A
C118        H122   1.084       .  S
C119        C782   1.473       .  S
C119        C120   1.400       .  A
C120        H123   1.084       .  S
C124        C942   1.495       .  S
C124        N125   1.371       .  A
C124        N129   1.361       .  A
N125        C126   1.368       .  A
C126        C772   1.490       .  S
C126        N127   1.350       .  A
N127        C128   1.347       .  A
C128        C805   1.480       .  S
C128        N129   1.355       .  A
C130        C765   1.492       .  S
C130        N131   1.366       .  A
C130        N135   1.361       .  A
N131        C132   1.364       .  A
C132       C1032   1.479       .  S
C132        N133   1.351       .  A
N133        C134   1.350       .  A
C134        C795   1.477       .  S
C134        N135   1.355       .  A
C136        C755   1.488       .  S
C136        N137   1.358       .  A
C136        N141   1.365       .  A
N137        C138   1.354       .  A
C138        C785   1.481       .  S
C138        N139   1.352       .  A
N139        C140   1.354       .  A
C140        C992   1.486       .  S
C140        N141   1.366       .  A
O142        C150   1.289   1_545  A
O142       Co162   2.068       .  S
O143        C151   1.267       .  A
O143       Co163   1.987       .  S
O144        C152   1.267       .  A
O144       Co164   1.961       .  S
O145        C153   1.258       .  A
O145       Co165   1.965   1_556  S
O146        C152   1.284   1_554  A
O146       Co163   2.059       .  S
O147        C153   1.265       .  A
O147       Co162   2.029       .  S
O148        C151   1.269       .  A
O148       Co165   1.981   1_565  S
O149        C150   1.270       .  A
O149       Co164   1.926       .  S
C150        C762   1.474       .  S
C151        C722   1.463       .  S
C152        C702   1.497       .  S
C153        C732   1.497       .  S
O154        C167   1.270   1_556  A
O154       Co162   1.967       .  S
O155        C168   1.254       .  A
O155       Co163   1.961   1_556  S
O156        C169   1.288   1_565  A
O156       Co164   2.070       .  S
O157        C170   1.264       .  A
O157       Co165   1.978       .  S
O158        C170   1.265   1_565  A
O158       Co163   1.977       .  S
O159        C169   1.269       .  A
O159       Co162   1.922       .  S
O160        C167   1.280       .  A
O160       Co165   2.043       .  S
O161        C168   1.266       .  A
O161       Co164   2.039       .  S
Co162       O166   2.025   1_546  S
Co163       O166   2.029       .  S
Co164       O166   2.035   1_556  S
Co165       O166   2.042   1_545  S
C167        C742   1.492   1_554  S
C168        C695   1.497       .  S
C169        C855   1.477   1_545  S
C170        C712   1.450       .  S
C171        C682   1.486       .  S
C171        C172   1.405       .  A
C171        C176   1.405       .  A
C172        C173   1.402       .  A
C172        H177   1.084       .  S
C173        C662   1.474       .  S
C173        C174   1.399       .  A
C174        C175   1.401       .  A
C174        H178   1.084       .  S
C175        C672   1.467       .  S
C175        C176   1.401       .  A
C176        H179   1.083       .  S
C180        C925   1.489       .  S
C180        N181   1.369       .  A
C180        N185   1.356       .  A
N181        C182   1.369       .  A
C182        C705   1.499       .  S
C182        N183   1.361       .  A
N183        C184   1.355       .  A
C184        C685   1.484       .  S
C184        N185   1.353       .  A
C186        C655   1.493       .  S
C186        N187   1.352       .  A
C186        N191   1.365       .  A
N187        C188   1.351       .  A
C188        C675   1.482       .  S
C188        N189   1.358       .  A
N189        C190   1.363       .  A
C190       C1065   1.497       .  S
C190        N191   1.369       .  A
C192        C642   1.476       .  S
C192        N193   1.367       .  A
C192        N197   1.351       .  A
N193        C194   1.371       .  A
C194        C975   1.498       .  S
C194        N195   1.362       .  A
N195        C196   1.356       .  A
C196        C665   1.482       .  S
C196        N197   1.349       .  A
C198        C622   1.471       .  S
C198        C199   1.399       .  A
C198        C203   1.401       .  A
C199        C200   1.397       .  A
C199        H204   1.084       .  S
C200        C612   1.453       .  S
C200        C201   1.391       .  A
C201        C202   1.397       .  A
C201        H205   1.084       .  S
C202        C632   1.467       .  S
C202        C203   1.401       .  A
C203        H206   1.084       .  S
C207       C1002   1.473       .  S
C207        N208   1.363       .  A
C207        N212   1.348       .  A
N208        C209   1.364       .  A
C209        C602   1.485       .  S
C209        N210   1.359       .  A
N210        C211   1.354       .  A
C211        C635   1.471       .  S
C211        N212   1.347       .  A
C213        C592   1.491       .  S
C213        N214   1.353       .  A
C213        N218   1.367       .  A
N214        C215   1.351       .  A
C215        C625   1.478       .  S
C215        N216   1.352       .  A
N216        C217   1.358       .  A
C217        C892   1.489       .  S
C217        N218   1.368       .  A
C219       C1075   1.486       .  S
C219        N220   1.361       .  A
C219        N224   1.363       .  A
N220        C221   1.356       .  A
C221        C615   1.470       .  S
C221        N222   1.347       .  A
N222        C223   1.346       .  A
C223        C715   1.470       .  S
C223        N224   1.361       .  A
O225        C233   1.263       .  A
O225       Co245   1.972   1_554  S
O226        C234   1.269       .  A
O226       Co246   1.964       .  S
O227        C235   1.290   1_655  A
O227       Co247   2.077       .  S
O228        C236   1.266       .  A
O228       Co248   1.979       .  S
O229        C235   1.267       .  A
O229       Co246   1.921       .  S
O230        C236   1.275       .  A
O230       Co245   1.994   1_455  S
O231        C234   1.283   1_556  A
O231       Co248   2.046       .  S
O232        C233   1.264       .  A
O232       Co247   2.009       .  S
C233        C812   1.489       .  S
C234        C582   1.492       .  S
C235        C565   1.477       .  S
C236        C645   1.468       .  S
O237        C250   1.266       .  A
O237       Co245   1.984       .  S
O238        C251   1.286   1_455  A
O238       Co246   2.071       .  S
O239        C252   1.273   1_554  A
O239       Co247   1.968       .  S
O240        C253   1.261       .  A
O240       Co248   1.970   1_554  S
O241        C253   1.262       .  A
O241       Co246   2.005       .  S
O242        C252   1.280       .  A
O242       Co245   2.033       .  S
O243        C250   1.273   1_455  A
O243       Co248   1.997       .  S
O244        C251   1.270       .  A
O244       Co247   1.941       .  S
Co245       O249   2.037   1_655  S
Co246       O249   2.026   1_554  S
Co247       O249   2.035   1_654  S
Co248       O249   2.032       .  S
C250        C552   1.469       .  S
C251        C572   1.487       .  S
C252        C595   1.486   1_556  S
C253        C775   1.481       .  S
C254        C535   1.491       .  S
C254        N255   1.365       .  A
C254        N259   1.357       .  A
N255        C256   1.367       .  A
C256       C1055   1.495       .  S
C256        N257   1.362       .  A
N257        C258   1.359       .  A
C258        C545   1.490       .  S
C258        N259   1.354       .  A
C260        C542   1.477       .  S
C260        C261   1.402       .  A
C260        C265   1.402       .  A
C261        C262   1.404       .  A
C261        H266   1.084       .  S
C262        C525   1.486       .  S
C262        C263   1.407       .  A
C263        C264   1.410       .  A
C263        H267   1.083       .  S
C264        C515   1.490       .  S
C264        C265   1.406       .  A
C265        H268   1.084       .  S
C269        C575   1.499       .  S
C269        N270   1.356       .  A
C269        N274   1.368       .  A
N270        C271   1.352       .  A
C271        C522   1.494       .  S
C271        N272   1.360       .  A
N272        C273   1.366       .  A
C273        C955   1.505       .  S
C273        N274   1.372       .  A
C275        C875   1.498       .  S
C275        N276   1.369       .  A
C275        N280   1.356       .  A
N276        C277   1.372       .  A
C277        C735   1.500       .  S
C277        N278   1.364       .  A
N278        C279   1.356       .  A
C279        C512   1.489       .  S
C279        N280   1.351       .  A
C281        C502   1.485       .  S
C281        C282   1.404       .  A
C281        C286   1.404       .  A
C282        C283   1.403       .  A
C282        H287   1.084       .  S
C283        C492   1.479       .  S
C283        C284   1.402       .  A
C284        C285   1.404       .  A
C284        H288   1.084       .  S
C285        C482   1.481       .  S
C285        C286   1.404       .  A
C286        H289   1.084       .  S
C290        C982   1.506       .  S
C290        N291   1.371       .  A
C290        N295   1.364       .  A
N291        C292   1.370       .  A
C292        C555   1.494       .  S
C292        N293   1.353       .  A
N293        C294   1.351       .  A
C294        C505   1.488       .  S
C294        N295   1.358       .  A
C296        C745   1.498       .  S
C296        N297   1.360       .  A
C296        N301   1.371       .  A
N297        C298   1.355       .  A
C298        C495   1.489       .  S
C298        N299   1.352       .  A
N299        C300   1.357       .  A
C300        C885   1.495       .  S
C300        N301   1.369       .  A
C302       C1095   1.499       .  S
C302        N303   1.371       .  A
C302        N307   1.361       .  A
N303        C304   1.369       .  A
C304        C472   1.496       .  S
C304        N305   1.355       .  A
N305        C306   1.352       .  A
C306        C485   1.483       .  S
C306        N307   1.355       .  A
C308        C445   1.475       .  S
C308        C309   1.401       .  A
C308        C313   1.400       .  A
C309        C310   1.405       .  A
C309        H314   1.084       .  S
C310        C452   1.480       .  S
C310        C311   1.403       .  A
C311        C312   1.402       .  A
C311        H315   1.084       .  S
C312        C462   1.473       .  S
C312        C313   1.403       .  A
C313        H316   1.084       .  S
C317       C1105   1.490       .  S
C317        N318   1.367       .  A
C317        N322   1.356       .  A
N318        C319   1.368       .  A
C319        C435   1.492       .  S
C319        N320   1.358       .  A
N320        C321   1.352       .  A
C321        C465   1.482       .  S
C321        N322   1.353       .  A
C323        C562   1.489       .  S
C323        N324   1.354       .  A
C323        N328   1.365       .  A
N324        C325   1.351       .  A
C325        C455   1.486       .  S
C325        N326   1.357       .  A
N326        C327   1.362       .  A
C327        C965   1.492       .  S
C327        N328   1.368       .  A
C329        C692   1.505       .  S
C329        N330   1.371       .  A
C329        N334   1.363       .  A
N330        C331   1.370       .  A
C331        C915   1.497       .  S
C331        N332   1.355       .  A
N332        C333   1.353       .  A
C333        C442   1.488       .  S
C333        N334   1.358       .  A
C335        C412   1.472       .  S
C335        C336   1.400       .  A
C335        C340   1.400       .  A
C336        C337   1.400       .  A
C336        H341   1.084       .  S
C337        C402   1.470       .  S
C337        C338   1.403       .  A
C338        C339   1.403       .  A
C338        H342   1.084       .  S
C339        C425   1.473       .  S
C339        C340   1.396       .  A
C340        H343   1.084       .  S
C344       C1082   1.496       .  S
C344        N345   1.363       .  A
C344        N349   1.370       .  A
N345        C346   1.356       .  A
C346        C422   1.482       .  S
C346        N347   1.348       .  A
N347        C348   1.350       .  A
C348        C725   1.485       .  S
C348        N349   1.367       .  A
C350        C392   1.483       .  S
C350        N351   1.368       .  A
C350        N355   1.351       .  A
N351        C352   1.370       .  A
C352       C1025   1.491       .  S
C352        N353   1.358       .  A
N353        C354   1.350       .  A
C354        C415   1.471       .  S
C354        N355   1.347       .  A
C356        C932   1.493       .  S
C356        N357   1.353       .  A
C356        N361   1.368       .  A
N357        C358   1.349       .  A
C358        C405   1.482       .  S
C358        N359   1.355       .  A
N359        C360   1.361       .  A
C360        C585   1.493       .  S
C360        N361   1.370       .  A
O362        C370   1.267       .  A
O362       Co382   1.987       .  S
O363        C371   1.287   1_455  A
O363       Co383   2.069       .  S
O364        C372   1.259       .  A
O364       Co384   1.970   1_545  S
O365        C373   1.271   1_545  A
O365       Co385   1.967       .  S
O366        C372   1.261       .  A
O366       Co383   2.009       .  S
O367        C373   1.280       .  A
O367       Co382   2.039       .  S
O368        C371   1.269       .  A
O368       Co385   1.926       .  S
O369        C370   1.270   1_455  A
O369       Co384   1.983       .  S
C370        C825   1.460       .  S
C371        C752   1.475       .  S
C372        C652   1.485       .  S
C373        C475   1.490   1_565  S
O374        C387   1.261       .  A
O374       Co382   1.973   1_545  S
O375        C388   1.268       .  A
O375       Co383   1.959       .  S
O376        C389   1.265       .  A
O376       Co384   1.978       .  S
O377        C390   1.288   1_655  A
O377       Co385   2.075       .  S
O378        C390   1.266       .  A
O378       Co383   1.918       .  S
O379        C389   1.269       .  A
O379       Co382   1.986   1_455  S
O380        C387   1.264       .  A
O380       Co385   2.006       .  S
O381        C388   1.283   1_565  A
O381       Co384   2.048       .  S
Co382       O386   2.035   1_655  S
Co383       O386   2.019   1_545  S
Co384       O386   2.031       .  S
Co385       O386   2.022   1_645  S
C387        C432   1.484       .  S
C388        C532   1.490       .  S
C389        C395   1.461       .  S
C390        C605   1.471       .  S
C391        C392   1.412       .  A
C391        C396   1.395       .  A
C391        H398   1.082       .  S
C392        C393   1.404       .  A
C393        C394   1.401       .  A
C393        F400   1.357       .  S
C394        C395   1.407       .  A
C394        H399   1.084   1_455  S
C395        C396   1.397       .  A
C396        F397   1.358       .  S
C401        C402   1.397       .  A
C401        C406   1.392       .  A
C401        H408   1.084       .  S
C402        C403   1.404       .  A
C403        C404   1.398       .  A
C403        F410   1.357       .  S
C404        C405   1.407       .  A
C404        H409   1.083       .  S
C405        C406   1.414       .  A
C406        F407   1.357       .  S
C411        C412   1.402       .  A
C411        C416   1.387       .  A
C411        H418   1.083       .  S
C412        C413   1.405       .  A
C413        C414   1.396       .  A
C413        F420   1.357       .  S
C414        C415   1.406       .  A
C414        H419   1.083       .  S
C415        C416   1.407       .  A
C416        F417   1.357       .  S
C421        C422   1.409       .  A
C421        C426   1.391       .  A
C421        H428   1.083       .  S
C422        C423   1.409       .  A
C423        C424   1.399       .  A
C423        F430   1.357       .  S
C424        C425   1.405       .  A
C424        H429   1.083       .  S
C425        C426   1.401       .  A
C426        F427   1.358       .  S
C431        C432   1.409       .  A
C431        C436   1.402       .  A
C431        H438   1.083       .  S
C432        C433   1.405   1_545  A
C433        C434   1.395       .  A
C433        F440   1.358       .  S
C434        C435   1.410       .  A
C434        H439   1.082       .  S
C435        C436   1.407   1_565  A
C436        F437   1.355       .  S
C441        C442   1.408       .  A
C441        C446   1.401       .  A
C441        H448   1.083       .  S
C442        C443   1.413       .  A
C443        C444   1.396       .  A
C443        F450   1.357       .  S
C444        C445   1.399       .  A
C444        H449   1.083       .  S
C445        C446   1.404       .  A
C446        F447   1.357       .  S
C451        C452   1.401       .  A
C451        C456   1.393       .  A
C451        H458   1.084       .  S
C452        C453   1.407       .  A
C453        C454   1.400       .  A
C453        F460   1.357       .  S
C454        C455   1.407       .  A
C454        H459   1.083       .  S
C455        C456   1.413       .  A
C456        F457   1.357       .  S
C461        C462   1.402       .  A
C461        C466   1.398       .  A
C461        H468   1.083       .  S
C462        C463   1.402       .  A
C463        C464   1.394       .  A
C463        F470   1.358       .  S
C464        C465   1.407       .  A
C464        H469   1.082       .  S
C465        C466   1.412       .  A
C466        F467   1.357       .  S
C471        C472   1.406       .  A
C471        C476   1.407   1_545  A
C471        H478   1.083       .  S
C472        C473   1.415       .  A
C473        C474   1.394       .  A
C473        F480   1.357       .  S
C474        C475   1.402       .  A
C474        H479   1.084       .  S
C475        C476   1.414   1_545  A
C476        F477   1.357       .  S
C481        C482   1.404       .  A
C481        C486   1.398       .  A
C481        H488   1.084       .  S
C482        C483   1.405       .  A
C483        C484   1.396       .  A
C483        F490   1.358       .  S
C484        C485   1.407       .  A
C484        H489   1.083       .  S
C485        C486   1.409       .  A
C486        F487   1.357       .  S
C491        C492   1.400       .  A
C491        C496   1.395       .  A
C491        H498   1.083       .  S
C492        C493   1.405       .  A
C493        C494   1.400       .  A
C493        F500   1.357       .  S
C494        C495   1.409       .  A
C494        H499   1.082       .  S
C495        C496   1.413       .  A
C496        F497   1.356       .  S
C501        C502   1.406       .  A
C501        C506   1.399       .  A
C501        H508   1.083       .  S
C502        C503   1.406       .  A
C503        C504   1.395       .  A
C503        F510   1.358       .  S
C504        C505   1.409       .  A
C504        H509   1.083       .  S
C505        C506   1.409       .  A
C506        F507   1.356       .  S
C511        C512   1.408       .  A
C511        C516   1.397       .  A
C511        H518   1.082       .  S
C512        C513   1.409       .  A
C513        C514   1.403       .  A
C513        F520   1.357       .  S
C514        C515   1.408       .  A
C514        H519   1.082       .  S
C515        C516   1.406       .  A
C516        F517   1.357       .  S
C521        C522   1.407       .  A
C521        C526   1.402       .  A
C521        H528   1.083       .  S
C522        C523   1.416       .  A
C523        C524   1.398       .  A
C523        F530   1.357       .  S
C524        C525   1.401       .  A
C524        H529   1.083       .  S
C525        C526   1.408       .  A
C526        F527   1.357       .  S
C531        C532   1.410   1_565  A
C531        C536   1.405   1_565  A
C531        H538   1.083       .  S
C532        C533   1.409       .  A
C533        C534   1.395       .  A
C533        F540   1.358       .  S
C534        C535   1.407       .  A
C534        H539   1.082       .  S
C535        C536   1.408       .  A
C536        F537   1.356       .  S
C541        C542   1.400       .  A
C541        C546   1.398       .  A
C541        H548   1.083       .  S
C542        C543   1.403       .  A
C543        C544   1.399       .  A
C543        F550   1.357       .  S
C544        C545   1.408       .  A
C544        H549   1.082       .  S
C545        C546   1.415       .  A
C546        F547   1.357       .  S
C551        C552   1.407       .  A
C551        C556   1.401       .  A
C551        H558   1.084   1_655  S
C552        C553   1.398       .  A
C553        C554   1.400       .  A
C553        F560   1.358       .  S
C554        C555   1.416       .  A
C554        H559   1.083       .  S
C555        C556   1.406       .  A
C556        F557   1.357       .  S
C561        C562   1.409       .  A
C561        C566   1.392       .  A
C561        H568   1.081       .  S
C562        C563   1.408       .  A
C563        C564   1.406   1_655  A
C563        F570   1.356   1_655  S
C564        C565   1.407       .  A
C564        H569   1.083       .  S
C565        C566   1.403   1_455  A
C566        F567   1.358       .  S
C571        C572   1.410       .  A
C571        C576   1.412       .  A
C571        H578   1.082       .  S
C572        C573   1.405   1_655  A
C573        C574   1.393       .  A
C573        F580   1.359       .  S
C574        C575   1.409       .  A
C574        H579   1.080       .  S
C575        C576   1.411   1_455  A
C576        F577   1.356       .  S
C581        C582   1.411   1_556  A
C581        C586   1.406   1_556  A
C581        H588   1.083       .  S
C582        C583   1.410       .  A
C583        C584   1.398       .  A
C583        F590   1.358       .  S
C584        C585   1.408       .  A
C584        H589   1.083       .  S
C585        C586   1.407       .  A
C586        F587   1.356   1_554  S
C591        C592   1.405       .  A
C591        C596   1.404   1_554  A
C591        H598   1.082   1_554  S
C592        C593   1.415       .  A
C593        C594   1.394       .  A
C593        F600   1.357       .  S
C594        C595   1.400       .  A
C594        H599   1.083       .  S
C595        C596   1.413   1_554  A
C596        F597   1.357       .  S
C601        C602   1.408       .  A
C601        C606   1.392       .  A
C601        H608   1.082       .  S
C602        C603   1.410   1_655  A
C603        C604   1.402       .  A
C603        F610   1.357       .  S
C604        C605   1.405       .  A
C604        H609   1.083       .  S
C605        C606   1.403   1_455  A
C606        F607   1.358       .  S
C611        C612   1.394       .  A
C611        C616   1.388       .  A
C611        H618   1.083       .  S
C612        C613   1.400       .  A
C613        C614   1.394       .  A
C613        F620   1.357       .  S
C614        C615   1.405       .  A
C614        H619   1.082       .  S
C615        C616   1.412       .  A
C616        F617   1.358       .  S
C621        C622   1.403       .  A
C621        C626   1.395       .  A
C621        H628   1.083       .  S
C622        C623   1.402       .  A
C623        C624   1.391       .  A
C623        F630   1.358       .  S
C624        C625   1.407       .  A
C624        H629   1.082       .  S
C625        C626   1.410       .  A
C626        F627   1.357       .  S
C631        C632   1.398       .  A
C631        C636   1.387       .  A
C631        H638   1.083       .  S
C632        C633   1.406       .  A
C633        C634   1.392       .  A
C633        F640   1.357       .  S
C634        C635   1.403       .  A
C634        H639   1.083       .  S
C635        C636   1.411       .  A
C636        F637   1.355       .  S
C641        C642   1.403       .  A
C641        C646   1.405       .  A
C641        H648   1.083       .  S
C642        C643   1.408       .  A
C643        C644   1.396       .  A
C643        F650   1.358       .  S
C644        C645   1.401       .  A
C644        H649   1.084       .  S
C645        C646   1.409       .  A
C646        F647   1.357   1_455  S
C651        C652   1.401   1_565  A
C651        C656   1.395       .  A
C651        H658   1.083       .  S
C652        C653   1.411       .  A
C653        C654   1.403       .  A
C653        F660   1.357       .  S
C654        C655   1.405   1_545  A
C654        H659   1.082       .  S
C655        C656   1.416       .  A
C656        F657   1.357       .  S
C661        C662   1.400       .  A
C661        C666   1.394       .  A
C661        H668   1.084       .  S
C662        C663   1.405       .  A
C663        C664   1.399       .  A
C663        F670   1.357       .  S
C664        C665   1.406       .  A
C664        H669   1.083       .  S
C665        C666   1.412       .  A
C666        F667   1.358       .  S
C671        C672   1.397       .  A
C671        C676   1.393       .  A
C671        H678   1.084       .  S
C672        C673   1.402       .  A
C673        C674   1.401       .  A
C673        F680   1.357       .  S
C674        C675   1.407       .  A
C674        H679   1.083       .  S
C675        C676   1.412       .  A
C676        F677   1.357       .  S
C681        C682   1.405       .  A
C681        C686   1.395       .  A
C681        H688   1.083       .  S
C682        C683   1.408       .  A
C683        C684   1.399       .  A
C683        F690   1.357       .  S
C684        C685   1.407       .  A
C684        H689   1.083       .  S
C685        C686   1.409       .  A
C686        F687   1.357       .  S
C691        C692   1.411       .  A
C691        C696   1.401       .  A
C691        H698   1.082       .  S
C692        C693   1.412       .  A
C693        C694   1.409   1_554  A
C693        F700   1.356   1_554  S
C694        C695   1.409       .  A
C694        H699   1.082       .  S
C695        C696   1.410   1_556  A
C696        F697   1.358       .  S
C701        C702   1.411       .  A
C701        C706   1.410       .  A
C701        H708   1.083   1_556  S
C702        C703   1.410       .  A
C703        C704   1.396       .  A
C703        F710   1.358       .  S
C704        C705   1.408       .  A
C704        H709   1.083       .  S
C705        C706   1.411       .  A
C706        F707   1.357       .  S
C711        C712   1.394       .  A
C711        C716   1.393       .  A
C711        H718   1.084       .  S
C712        C713   1.404       .  A
C713        C714   1.393       .  A
C713        F720   1.357   1_545  S
C714        C715   1.400       .  A
C714        H719   1.084       .  S
C715        C716   1.414       .  A
C716        F717   1.358       .  S
C721        C722   1.408       .  A
C721        C726   1.403       .  A
C721        H728   1.084   1_565  S
C722        C723   1.396       .  A
C723        C724   1.394       .  A
C723        F730   1.358       .  S
C724        C725   1.412       .  A
C724        H729   1.083       .  S
C725        C726   1.405       .  A
C726        F727   1.357       .  S
C731        C732   1.411       .  A
C731        C736   1.409       .  A
C731        H738   1.083       .  S
C732        C733   1.409   1_556  A
C733        C734   1.398       .  A
C733        F740   1.358       .  S
C734        C735   1.409       .  A
C734        H739   1.083       .  S
C735        C736   1.411   1_554  A
C736        F737   1.357       .  S
C741        C742   1.404       .  A
C741        C746   1.397       .  A
C741        H748   1.083       .  S
C742        C743   1.413   1_556  A
C743        C744   1.406   1_554  A
C743        F750   1.357       .  S
C744        C745   1.407       .  A
C744        H749   1.082   1_556  S
C745        C746   1.415       .  A
C746        F747   1.357       .  S
C751        C752   1.400   1_455  A
C751        C756   1.392       .  A
C751        H758   1.084       .  S
C752        C753   1.407       .  A
C753        C754   1.406   1_655  A
C753        F760   1.357       .  S
C754        C755   1.409       .  A
C754        H759   1.083   1_455  S
C755        C756   1.411       .  A
C756        F757   1.356       .  S
C761        C762   1.404       .  A
C761        C766   1.405       .  A
C761        H768   1.083       .  S
C762        C763   1.403   1_565  A
C763        C764   1.394       .  A
C763        F770   1.358       .  S
C764        C765   1.409       .  A
C764        H769   1.082       .  S
C765        C766   1.412   1_545  A
C766        F767   1.357       .  S
C771        C772   1.412       .  A
C771        C776   1.392       .  A
C771        H778   1.081       .  S
C772        C773   1.404   1_556  A
C773        C774   1.403       .  A
C773        F780   1.354       .  S
C774        C775   1.411       .  A
C774        H779   1.083       .  S
C775        C776   1.402   1_554  A
C776        F777   1.358       .  S
C781        C782   1.402       .  A
C781        C786   1.396       .  A
C781        H788   1.083       .  S
C782        C783   1.403       .  A
C783        C784   1.393       .  A
C783        F790   1.358       .  S
C784        C785   1.407       .  A
C784        H789   1.082       .  S
C785        C786   1.410       .  A
C786        F787   1.356       .  S
C791        C792   1.400       .  A
C791        C796   1.389       .  A
C791        H798   1.084       .  S
C792        C793   1.405       .  A
C793        C794   1.397       .  A
C793        F800   1.358       .  S
C794        C795   1.406       .  A
C794        H799   1.083       .  S
C795        C796   1.411       .  A
C796        F797   1.357       .  S
C801        C802   1.396       .  A
C801        C806   1.390       .  A
C801        H808   1.084       .  S
C802        C803   1.405       .  A
C803        C804   1.397       .  A
C803        F810   1.358       .  S
C804        C805   1.406       .  A
C804        H809   1.083       .  S
C805        C806   1.414       .  A
C806        F807   1.356       .  S
C811        C812   1.412       .  A
C811        C816   1.407       .  A
C811        H818   1.083       .  S
C812        C813   1.405   1_554  A
C813        C814   1.393       .  A
C813        F820   1.358       .  S
C814        C815   1.411       .  A
C814        H819   1.083       .  S
C815        C816   1.406   1_556  A
C816        F817   1.356       .  S
C821        C822   1.402       .  A
C821        C826   1.398       .  A
C821        H828   1.084       .  S
C822        C823   1.413       .  A
C823        C824   1.395       .  A
C823        F830   1.357       .  S
C824        C825   1.396       .  A
C824        H829   1.084       .  S
C825        C826   1.407       .  A
C826        F827   1.357   1_655  S
C831        C832   1.401       .  A
C831        C836   1.392       .  A
C831        H838   1.084       .  S
C832        C833   1.403       .  A
C833        C834   1.393       .  A
C833        F840   1.358       .  S
C834        C835   1.407       .  A
C834        H839   1.083       .  S
C835        C836   1.409       .  A
C836        F837   1.355       .  S
C841        C842   1.399       .  A
C841        C846   1.389       .  A
C841        H848   1.084       .  S
C842        C843   1.403       .  A
C843        C844   1.397       .  A
C843        F850   1.357       .  S
C844        C845   1.408       .  A
C844        H849   1.083       .  S
C845        C846   1.411       .  A
C846        F847   1.357       .  S
C851        C852   1.408       .  A
C851        C856   1.396       .  A
C851        H858   1.083       .  S
C852        C853   1.411       .  A
C853        C854   1.402   1_565  A
C853        F860   1.357   1_565  S
C854        C855   1.405   1_545  A
C854        H859   1.084       .  S
C855        C856   1.404       .  A
C856        F857   1.358       .  S
C861        C862   1.407       .  A
C861        C866   1.391       .  A
C861        H868   1.082       .  S
C862        C863   1.410       .  A
C863        C864   1.396       .  A
C863        F870   1.357       .  S
C864        C865   1.402       .  A
C864        H869   1.082       .  S
C865        C866   1.402       .  A
C866        F867   1.358       .  S
C871        C872   1.410       .  A
C871        C876   1.410       .  A
C871        H878   1.083       .  S
C872        C873   1.403       .  A
C873        C874   1.394       .  A
C873        F880   1.358       .  S
C874        C875   1.411       .  A
C874        H879   1.082       .  S
C875        C876   1.410       .  A
C876        F877   1.357       .  S
C881        C882   1.401       .  A
C881        C886   1.392       .  A
C881        H888   1.084       .  S
C882        C883   1.411       .  A
C883        C884   1.411       .  A
C883        F890   1.357       .  S
C884        C885   1.409       .  A
C884        H889   1.083       .  S
C885        C886   1.413       .  A
C886        F887   1.356       .  S
C891        C892   1.408       .  A
C891        C896   1.394       .  A
C891        H898   1.083       .  S
C892        C893   1.407       .  A
C893        C894   1.402       .  A
C893        F900   1.355       .  S
C894        C895   1.409       .  A
C894        H899   1.083       .  S
C895        C896   1.408       .  A
C896        F897   1.358       .  S
C901        C902   1.398       .  A
C901        C906   1.393       .  A
C901        H908   1.084       .  S
C902        C903   1.413       .  A
C903        C904   1.407       .  A
C903        F910   1.357       .  S
C904        C905   1.406       .  A
C904        H909   1.083       .  S
C905        C906   1.417       .  A
C906        F907   1.355       .  S
C911        C912   1.399       .  A
C911        C916   1.402       .  A
C911        H918   1.084       .  S
C912        C913   1.410       .  A
C913        C914   1.406       .  A
C913        F920   1.357       .  S
C914        C915   1.405       .  A
C914        H919   1.083       .  S
C915        C916   1.417       .  A
C916        F917   1.357       .  S
C921        C922   1.406       .  A
C921        C926   1.403       .  A
C921        H928   1.085       .  S
C922        C923   1.400       .  A
C923        C924   1.399       .  A
C923        F930   1.358       .  S
C924        C925   1.411       .  A
C924        H929   1.083       .  S
C925        C926   1.407       .  A
C926        F927   1.357       .  S
C931        C932   1.412       .  A
C931        C936   1.394       .  A
C931        H938   1.082       .  S
C932        C933   1.406       .  A
C933        C934   1.403       .  A
C933        F940   1.355       .  S
C934        C935   1.411       .  A
C934        H939   1.083       .  S
C935        C936   1.402       .  A
C936        F937   1.358       .  S
C941        C942   1.406       .  A
C941        C946   1.404       .  A
C941        H948   1.082       .  S
C942        C943   1.414       .  A
C943        C944   1.397       .  A
C943        F950   1.357       .  S
C944        C945   1.404       .  A
C944        H949   1.083       .  S
C945        C946   1.413       .  A
C946        F947   1.358       .  S
C951        C952   1.410       .  A
C951        C956   1.408       .  A
C951        H958   1.084       .  S
C952        C953   1.410       .  A
C953        C954   1.403       .  A
C953        F960   1.358       .  S
C954        C955   1.410       .  A
C954        H959   1.084       .  S
C955        C956   1.411       .  A
C956        F957   1.355       .  S
C961        C962   1.407       .  A
C961        C966   1.397       .  A
C961        H968   1.083       .  S
C962        C963   1.411       .  A
C963        C964   1.406       .  A
C963        F970   1.357       .  S
C964        C965   1.407       .  A
C964        H969   1.083       .  S
C965        C966   1.410       .  A
C966        F967   1.358       .  S
C971        C972   1.404       .  A
C971        C976   1.397       .  A
C971        H978   1.083       .  S
C972        C973   1.413       .  A
C973        C974   1.406       .  A
C973        F980   1.357       .  S
C974        C975   1.407       .  A
C974        H979   1.083       .  S
C975        C976   1.414       .  A
C976        F977   1.357       .  S
C981        C982   1.411       .  A
C981        C986   1.412       .  A
C981        H988   1.083       .  S
C982        C983   1.414       .  A
C983        C984   1.398       .  A
C983        F990   1.356       .  S
C984        C985   1.405       .  A
C984        H989   1.084       .  S
C985        C986   1.411       .  A
C986        F987   1.357       .  S
C991        C992   1.404       .  A
C991        C996   1.397       .  A
C991        H998   1.083       .  S
C992        C993   1.417       .  A
C993        C994   1.396       .  A
C993       F1000   1.357       .  S
C994        C995   1.395       .  A
C994        H999   1.084       .  S
C995        C996   1.405       .  A
C996        F997   1.358       .  S
C1001      C1002   1.402       .  A
C1001      C1006   1.395       .  A
C1001      H1008   1.084       .  S
C1002      C1003   1.414       .  A
C1003      C1004   1.388       .  A
C1003      F1010   1.355       .  S
C1004      C1005   1.392       .  A
C1004      H1009   1.085       .  S
C1005      C1006   1.404       .  A
C1006      F1007   1.358       .  S
C1011      C1012   1.404       .  A
C1011      C1016   1.401       .  A
C1011      H1018   1.083       .  S
C1012      C1013   1.404       .  A
C1013      C1014   1.393       .  A
C1013      F1020   1.358       .  S
C1014      C1015   1.408       .  A
C1014      H1019   1.083       .  S
C1015      C1016   1.410       .  A
C1016      F1017   1.356       .  S
C1021      C1022   1.406       .  A
C1021      C1026   1.405       .  A
C1021      H1028   1.083       .  S
C1022      C1023   1.401       .  A
C1023      C1024   1.392       .  A
C1023      F1030   1.358       .  S
C1024      C1025   1.411       .  A
C1024      H1029   1.082       .  S
C1025      C1026   1.409       .  A
C1026      F1027   1.356       .  S
C1031      C1032   1.409       .  A
C1031      C1036   1.394       .  A
C1031      H1038   1.083       .  S
C1032      C1033   1.404       .  A
C1033      C1034   1.402       .  A
C1033      F1040   1.357       .  S
C1034      C1035   1.406       .  A
C1034      H1039   1.084       .  S
C1035      C1036   1.399       .  A
C1036      F1037   1.358       .  S
C1041      C1042   1.401       .  A
C1041      C1046   1.393       .  A
C1041      H1048   1.084       .  S
C1042      C1043   1.416       .  A
C1043      C1044   1.401       .  A
C1043      F1050   1.358       .  S
C1044      C1045   1.398       .  A
C1044      H1049   1.084       .  S
C1045      C1046   1.404       .  A
C1046      F1047   1.356       .  S
C1051      C1052   1.409       .  A
C1051      C1056   1.407       .  A
C1051      H1058   1.083       .  S
C1052      C1053   1.412       .  A
C1053      C1054   1.398       .  A
C1053      F1060   1.358       .  S
C1054      C1055   1.406       .  A
C1054      H1059   1.083       .  S
C1055      C1056   1.410       .  A
C1056      F1057   1.357       .  S
C1061      C1062   1.408       .  A
C1061      C1066   1.403       .  A
C1061      H1068   1.083       .  S
C1062      C1063   1.407       .  A
C1063      C1064   1.401       .  A
C1063      F1070   1.357       .  S
C1064      C1065   1.410       .  A
C1064      H1069   1.083       .  S
C1065      C1066   1.410       .  A
C1066      F1067   1.355       .  S
C1071      C1072   1.404       .  A
C1071      C1076   1.402       .  A
C1071      H1078   1.083       .  S
C1072      C1073   1.405       .  A
C1073      C1074   1.392       .  A
C1073      F1080   1.358       .  S
C1074      C1075   1.406       .  A
C1074      H1079   1.083       .  S
C1075      C1076   1.411       .  A
C1076      F1077   1.357       .  S
C1081      C1082   1.410       .  A
C1081      C1086   1.396       .  A
C1081      H1088   1.082       .  S
C1082      C1083   1.412       .  A
C1083      C1084   1.406       .  A
C1083      F1090   1.357       .  S
C1084      C1085   1.406       .  A
C1084      H1089   1.083       .  S
C1085      C1086   1.404       .  A
C1086      F1087   1.358       .  S
C1091      C1092   1.409       .  A
C1091      C1096   1.406       .  A
C1091      H1098   1.083       .  S
C1092      C1093   1.407       .  A
C1093      C1094   1.399       .  A
C1093      F1100   1.358       .  S
C1094      C1095   1.410       .  A
C1094      H1099   1.083       .  S
C1095      C1096   1.408       .  A
C1096      F1097   1.354       .  S
C1101      C1102   1.411       .  A
C1101      C1106   1.405       .  A
C1101      H1108   1.083       .  S
C1102      C1103   1.408       .  A
C1103      C1104   1.395       .  A
C1103      F1110   1.358       .  S
C1104      C1105   1.408       .  A
C1104      H1109   1.082       .  S
C1105      C1106   1.406       .  A
C1106      F1107   1.356       .  S
