geometry optimzed in LAMMPS
_audit_creation_date              2020-11-30 
_audit_creation_method            'lammps2cif' 
_symmetry_space_group_name_H-M    'P1' 
_symmetry_Int_Tables_number       1 
_symmetry_cell_setting            triclinic 
loop_ 
_symmetry_equiv_pos_as_xyz 
  x,y,z 
_cell_length_a                    30.25728939 
_cell_length_b                    30.82864442339539 
_cell_length_c                    32.31129990903211 
_cell_angle_alpha                 90.13879794122838 
_cell_angle_beta                  90.02616552816869 
_cell_angle_gamma                 90.11434608886603 
loop_ 
_atom_site_label 
_atom_site_type_symbol 
_atom_site_fract_x 
_atom_site_fract_y 
_atom_site_fract_z 
_atom_site_charge 
N1          N  0.50884118  0.43544475  0.73615649    -0.35700
N2          N  0.43592567  0.49693244  0.73174606    -0.56200
N3          N  0.49389907  0.57111571  0.74767896    -0.35700
N4          N  0.56707654  0.50920654  0.75078164    -0.56200
C5          C  0.47723361  0.41124093  0.71737353     0.27900
C6          C  0.54834934  0.41840548  0.72497498     0.27900
C7          C  0.45885899  0.59115804  0.72985369     0.27900
C8          C  0.52913506  0.59792276  0.74338959     0.27900
C9          C  0.41275550  0.45941731  0.72973215     0.36500
C10         C  0.40586051  0.52930440  0.73132990     0.36500
C11         C  0.59694771  0.47668900  0.75271371     0.36500
C12         C  0.58870777  0.54575949  0.76208223     0.36500
C13         C  0.49674061  0.37734276  0.69585264    -0.21000
C14         C  0.54147334  0.38207418  0.70029665    -0.21000
C15         C  0.47168717  0.63178444  0.71584341    -0.21000
C16         C  0.51580756  0.63615735  0.72461260    -0.21000
C17         C  0.36777832  0.46810370  0.72966487    -0.22000
C18         C  0.36345817  0.51232373  0.73044304    -0.22000
C19         C  0.63726742  0.49232586  0.76652987    -0.22000
C20         C  0.63200096  0.53604746  0.77270353    -0.22000
C21         C  0.43128054  0.41923715  0.71805397    -0.17400
C22         C  0.59053141  0.43516524  0.73540915    -0.17400
C23         C  0.57356389  0.58811635  0.75346047    -0.17400
C24         C  0.41600445  0.57336366  0.72446380    -0.17400
H25         H  0.48057834  0.35242826  0.67763758     0.15500
H26         H  0.56596751  0.36150635  0.68588355     0.15500
H27         H  0.45189296  0.65546574  0.69962068     0.15500
H28         H  0.53611359  0.66376762  0.71639988     0.15500
H29         H  0.34085972  0.44522900  0.72625146     0.13800
H30         H  0.33269271  0.53003261  0.72820828     0.13800
H31         H  0.66787450  0.47448920  0.76956405     0.13800
H32         H  0.65795028  0.55869164  0.78097974     0.13800
H33         H  0.50356414  0.46099918  0.75667427     0.27100
H34         H  0.49368927  0.54135944  0.76282251     0.27100
N35         N  0.49311034  0.56236979  0.95912032    -0.35700
N36         N  0.56392688  0.49674905  0.96040641    -0.56200
N37         N  0.50349087  0.42593298  0.97410607    -0.35700
N38         N  0.43251291  0.49027662  0.97268589    -0.56200
C39         C  0.52874395  0.58650623  0.97001412     0.27900
C40         C  0.45691177  0.58349214  0.97341353     0.27900
C41         C  0.54206810  0.40745940  0.98589660     0.27900
C42         C  0.47070507  0.40409686  0.99350454     0.27900
C43         C  0.58723959  0.53308975  0.95245616     0.36500
C44         C  0.59295111  0.46359204  0.95859111     0.36500
C45         C  0.40320780  0.52285450  0.96727106     0.36500
C46         C  0.40846658  0.45340483  0.97606884     0.36500
C47         C  0.51486782  0.62435862  0.98929658    -0.21000
C48         C  0.46963723  0.62253948  0.99132057    -0.21000
C49         C  0.53344635  0.37224740  0.01134273    -0.21000
C50         C  0.48845441  0.37002345  0.01598936    -0.21000
C51         C  0.63082902  0.52275238  0.94364729    -0.22000
C52         C  0.63443838  0.47864594  0.94746392    -0.22000
C53         C  0.36060270  0.50637006  0.96560149    -0.22000
C54         C  0.36389655  0.46247457  0.97139989    -0.22000
C55         C  0.57352558  0.57450230  0.96511736    -0.17400
C56         C  0.41313338  0.56711730  0.97353410    -0.17400
C57         C  0.42520063  0.41401631  0.99171954    -0.17400
C58         C  0.58490367  0.42249469  0.97579713    -0.17400
H59         H  0.53522271  0.65005512  0.00199225     0.15500
H60         H  0.44890338  0.64640437  0.00631379     0.15500
H61         H  0.55706086  0.35097461  0.02609644     0.15500
H62         H  0.47094895  0.34650681  0.03467509     0.15500
H63         H  0.65795769  0.54512489  0.93880171     0.13800
H64         H  0.66482507  0.46024481  0.94577828     0.13800
H65         H  0.33010765  0.52455071  0.96355656     0.13800
H66         H  0.33635252  0.44030035  0.97450524     0.13800
H67         H  0.49345342  0.53324717  0.94270549     0.27100
H68         H  0.49954193  0.45085795  0.95275629     0.27100
N69         N  0.49997071  0.13977070  0.40795401    -0.35700
N70         N  0.56445919  0.13948896  0.34100704    -0.56200
N71         N  0.49403377  0.12931322  0.28114975    -0.35700
N72         N  0.42868588  0.13486484  0.34764759    -0.56200
C73         C  0.53589165  0.15749221  0.42665715     0.27900
C74         C  0.46413384  0.15098419  0.43067715     0.27900
C75         C  0.52883960  0.13864029  0.25629076     0.27900
C76         C  0.45681794  0.13888519  0.25974349     0.27900
C77         C  0.59149199  0.13645448  0.37420667     0.36500
C78         C  0.58838417  0.12707496  0.30766113     0.36500
C79         C  0.40595175  0.12548676  0.38261981     0.36500
C80         C  0.40244482  0.12362437  0.31540279     0.36500
C81         C  0.52245295  0.18088856  0.46116887    -0.21000
C82         C  0.47731744  0.17633707  0.46397296    -0.21000
C83         C  0.51354769  0.15435685  0.21874116    -0.21000
C84         C  0.46819991  0.15459243  0.22093460    -0.21000
C85         C  0.63263401  0.12146148  0.36211439    -0.22000
C86         C  0.63045122  0.11480816  0.32004441    -0.22000
C87         C  0.36545096  0.10720527  0.37245070    -0.22000
C88         C  0.36304084  0.10649315  0.32988056    -0.22000
C89         C  0.58047202  0.15089755  0.41441119    -0.17400
C90         C  0.42013741  0.13739815  0.42299918    -0.17400
C91         C  0.41294681  0.13125060  0.27328635    -0.17400
C92         C  0.57391214  0.13185853  0.26612258    -0.17400
H93         H  0.54285961  0.19939336  0.48231555     0.15500
H94         H  0.45652553  0.19057747  0.48760711     0.15500
H95         H  0.53293755  0.16482720  0.19244554     0.15500
H96         H  0.44619482  0.16510262  0.19653526     0.15500
H97         H  0.66129359  0.11623954  0.38152114     0.13800
H98         H  0.65723111  0.10341991  0.30070924     0.13800
H99         H  0.33996835  0.09607813  0.39338307     0.13800
H100        H  0.33547310  0.09466426  0.31170318     0.13800
H101        H  0.50023720  0.11755255  0.38360428     0.27100
H102        H  0.49550041  0.11316744  0.30937389     0.27100
N103        N  0.85242536  0.49505075  0.28831678    -0.35700
N104        N  0.84992324  0.42504666  0.35039132    -0.56200
N105        N  0.84973623  0.49053222  0.41518111    -0.35700
N106        N  0.84456748  0.56023792  0.35321024    -0.56200
C107        C  0.84436781  0.45966575  0.26446110     0.27900
C108        C  0.84060409  0.53043174  0.26595729     0.27900
C109        C  0.84021699  0.45430732  0.43727849     0.27900
C110        C  0.83874360  0.52512450  0.43896946     0.27900
C111        C  0.86147538  0.40217110  0.31622099     0.36500
C112        C  0.85872480  0.39954349  0.38356159     0.36500
C113        C  0.85256550  0.58638156  0.32028612     0.36500
C114        C  0.85329077  0.58385675  0.38772602     0.36500
C115        C  0.82717345  0.47275855  0.22667484    -0.21000
C116        C  0.82483848  0.51721649  0.22760570    -0.21000
C117        C  0.82263753  0.46615336  0.47531563    -0.21000
C118        C  0.82183882  0.51066976  0.47642914    -0.21000
C119        C  0.87809343  0.36210655  0.32785125    -0.22000
C120        C  0.87617279  0.36039040  0.37041003    -0.22000
C121        C  0.86668619  0.62668817  0.33395015    -0.22000
C122        C  0.86739181  0.62503051  0.37654470    -0.22000
C123        C  0.85430651  0.41604608  0.27477912    -0.17400
C124        C  0.84568578  0.57441422  0.27824239    -0.17400
C125        C  0.84609157  0.56934531  0.42900549    -0.17400
C126        C  0.84969310  0.41098852  0.42533263    -0.17400
H127        H  0.81719126  0.45243877  0.20094166     0.15500
H128        H  0.81272212  0.53742087  0.20273015     0.15500
H129        H  0.81172110  0.44499032  0.49997912     0.15500
H130        H  0.81019189  0.53012937  0.50211392     0.15500
H131        H  0.89036084  0.33667186  0.30781913     0.13800
H132        H  0.88679103  0.33352026  0.38943109     0.13800
H133        H  0.87603020  0.65428415  0.31524959     0.13800
H134        H  0.87731853  0.65123299  0.39686582     0.13800
H135        H  0.86933756  0.49515688  0.31634468     0.27100
H136        H  0.86739727  0.49180385  0.38761594     0.27100
N137        N  0.49795972  0.85091235  0.30198010    -0.35700
N138        N  0.43233224  0.86126397  0.36640672    -0.56200
N139        N  0.50135167  0.87504711  0.42920689    -0.35700
N140        N  0.56707050  0.85908031  0.36596716    -0.56200
C141        C  0.46106355  0.83632976  0.28232590     0.27900
C142        C  0.53350293  0.83368055  0.28237665     0.27900
C143        C  0.46561242  0.86670542  0.45312858     0.27900
C144        C  0.53767459  0.86746516  0.45266564     0.27900
C145        C  0.40570755  0.86316890  0.33276420     0.36500
C146        C  0.40780976  0.87474306  0.39896674     0.36500
C147        C  0.59188761  0.85932665  0.33115763     0.36500
C148        C  0.59352457  0.87344187  0.39700516     0.36500
C149        C  0.47337899  0.80982361  0.24961293    -0.21000
C150        C  0.51893885  0.80805078  0.24970230    -0.21000
C151        C  0.47940915  0.85430517  0.49232584    -0.21000
C152        C  0.52476734  0.85486866  0.49206143    -0.21000
C153        C  0.36443306  0.87869311  0.34388671    -0.22000
C154        C  0.36589660  0.88641986  0.38573426    -0.22000
C155        C  0.63397313  0.87466434  0.33996457    -0.22000
C156        C  0.63482177  0.88413730  0.38152943    -0.22000
C157        C  0.41672115  0.84668676  0.29321558    -0.17400
C158        C  0.57861844  0.84161598  0.29264891    -0.17400
C159        C  0.58210823  0.87187959  0.43955292    -0.17400
C160        C  0.42090574  0.87088159  0.44088618    -0.17400
H161        H  0.45185174  0.79283138  0.22827030     0.15500
H162        H  0.53891640  0.78947915  0.22832103     0.15500
H163        H  0.45905440  0.84509446  0.51840760     0.15500
H164        H  0.54568063  0.84597045  0.51784417     0.15500
H165        H  0.33593508  0.88306108  0.32408237     0.13800
H166        H  0.33869500  0.89788542  0.40452071     0.13800
H167        H  0.66143304  0.87803328  0.31874613     0.13800
H168        H  0.66305109  0.89630142  0.39857945     0.13800
H169        H  0.49903251  0.87414008  0.32540473     0.27100
H170        H  0.50089563  0.88832938  0.39961375     0.27100
N171        N  0.13483882  0.50450287  0.41541876    -0.35700
N172        N  0.13914552  0.43575555  0.35135182    -0.56200
N173        N  0.13966190  0.50249960  0.28895467    -0.35700
N174        N  0.14238874  0.57116207  0.35324583    -0.56200
C175        C  0.14610938  0.46911366  0.43783881     0.27900
C176        C  0.14468791  0.53988356  0.43879671     0.27900
C177        C  0.14841960  0.46665462  0.26580249     0.27900
C178        C  0.15287706  0.53751355  0.26682226     0.27900
C179        C  0.12907060  0.41216661  0.38535967     0.36500
C180        C  0.12859162  0.41108958  0.31793312     0.36500
C181        C  0.13101611  0.59630662  0.38608503     0.36500
C182        C  0.13628612  0.59538079  0.31883010     0.36500
C183        C  0.16370798  0.48224322  0.47553350    -0.21000
C184        C  0.16267515  0.52674606  0.47617917    -0.21000
C185        C  0.16769566  0.47916509  0.22875367    -0.21000
C186        C  0.17051125  0.52366217  0.22939197    -0.21000
C187        C  0.11169298  0.37238893  0.37357980    -0.22000
C188        C  0.11093624  0.37187715  0.33093038    -0.22000
C189        C  0.11698991  0.63653421  0.37231429    -0.22000
C190        C  0.12071695  0.63608375  0.32980547    -0.22000
C191        C  0.13800399  0.42533153  0.42667717    -0.17400
C192        C  0.13608935  0.58363597  0.42812920    -0.17400
C193        C  0.14658270  0.58170635  0.27793324    -0.17400
C194        C  0.13738283  0.42317765  0.27624415    -0.17400
H195        H  0.17582651  0.46189834  0.50030179     0.15500
H196        H  0.17410623  0.54707179  0.50137450     0.15500
H197        H  0.17865966  0.45847558  0.20369008     0.15500
H198        H  0.18379177  0.54353532  0.20476672     0.15500
H199        H  0.10045488  0.34654231  0.39361237     0.13800
H200        H  0.09866216  0.34559515  0.31186900     0.13800
H201        H  0.10524788  0.66344857  0.39079154     0.13800
H202        H  0.11248202  0.66259262  0.30932914     0.13800
H203        H  0.11697640  0.50432642  0.38787867     0.27100
H204        H  0.12124681  0.50343092  0.31611017     0.27100
Zr205      Zr  0.21557111  0.22325807  0.18092882     2.17500
O206        O  0.21060340  0.21299555  0.25579410    -0.50400
O207        O  0.15509813  0.17130274  0.19228309    -0.73600
O208        O  0.18138742  0.28470103  0.21705235    -0.80400
O209        O  0.32215798  0.15478689  0.17321652    -0.82100
O210        O  0.15635832  0.33432739  0.17081376    -0.77800
O211        O  0.27701009  0.19000120  0.21829312    -0.89400
O212        O  0.12339515  0.14877587  0.13218459    -0.75400
O213        O  0.15992914  0.23537137  0.13030240    -0.84900
O214        O  0.22215644  0.16530081  0.13225513    -0.84500
O215        O  0.23419853  0.29315453  0.15200564    -0.71300
O216        O  0.28870019  0.22866426  0.15233200    -0.83400
Zr217      Zr  0.25431495  0.25237541  0.02170463     2.26400
Zr218      Zr  0.17701237  0.30523719  0.10208708     2.06300
Zr219      Zr  0.29483998  0.17090797  0.10370203     2.10000
Zr220      Zr  0.16831162  0.17868145  0.07992652     1.78800
O221        O  0.37500958  0.16437965  0.10261256    -0.92200
O222        O  0.09223038  0.19421542  0.06004867    -0.40100
O223        O  0.24029119  0.18232120  0.05092342    -0.76700
O224        O  0.18159545  0.24786238  0.05142243    -0.95400
O225        O  0.24906147  0.31016059  0.07093698    -0.88700
O226        O  0.31113829  0.23931997  0.07152589    -0.91500
C227        C  0.12646482  0.14960865  0.17126210     1.02200
C228        C  0.31103618  0.16666886  0.20998736     1.15200
C229        C  0.16303969  0.32109010  0.20818323     1.05900
O230        O  0.09654966  0.30422923  0.10216945    -0.93700
O231        O  0.15631037  0.33089753  0.03362366    -0.89400
O232        O  0.19915468  0.29643578  0.98563376    -0.82600
C233        C  0.16752129  0.32197774  0.99621451     1.12600
O234        O  0.33456070  0.31479073  0.18878520    -0.95600
Zr235      Zr  0.30544195  0.29669770  0.12047020     1.88900
O236        O  0.31206495  0.30363412  0.00327485    -0.72300
O237        O  0.18194475  0.38404348  0.09901375    -0.51600
O238        O  0.29664040  0.37363718  0.13595000    -0.96200
O239        O  0.38390126  0.28052074  0.12791048    -0.53500
O240        O  0.33946958  0.33308359  0.06232605    -0.72800
C241        C  0.33753144  0.32984221  0.02279446     0.99500
O242        O  0.24540162  0.25063686  0.94663745    -0.61600
O243        O  0.28415028  0.09263622  0.10866748    -0.56400
O244        O  0.29192417  0.19078953  0.98807965    -0.93100
O245        O  0.31701249  0.14341332  0.03666936    -0.91500
O246        O  0.17631323  0.10030133  0.07429621    -0.91900
O247        O  0.15101559  0.15399460  0.01009298    -0.90700
C248        C  0.31201740  0.15590354  0.99916847     1.18400
H249        H  0.21775239  0.13748711  0.14529336     0.34300
H250        H  0.15838663  0.24992338  0.03109508     0.45200
H251        H  0.33983515  0.23865981  0.05849583     0.38700
H252        H  0.23605819  0.31586909  0.17247465     0.35200
H253        H  0.07636426  0.16624836  0.06283730     0.27000
H254        H  0.15279906  0.39446937  0.10873852     0.32900
H255        H  0.32450402  0.38739750  0.12665201     0.38800
H256        H  0.14570633  0.08906592  0.07222367     0.33300
H257        H  0.31286310  0.08003855  0.10027255     0.32100
H258        H  0.38072763  0.13299392  0.10615081     0.33800
H259        H  0.39536601  0.27743370  0.09936996     0.32800
H260        H  0.17053057  0.17137662  0.99193405     0.36800
H261        H  0.27566468  0.25010058  0.93498666     0.29500
H262        H  0.17887731  0.21580114  0.26283038     0.33800
H263        H  0.35669155  0.33800581  0.18426440     0.36600
H264        H  0.28204795  0.08647463  0.13866085     0.29200
H265        H  0.23258009  0.22185907  0.94002205     0.42100
H266        H  0.08828007  0.29052069  0.12875088     0.32100
H267        H  0.08051567  0.21244759  0.08278536     0.39800
H268        H  0.38470225  0.25076925  0.13935847     0.31600
H269        H  0.20276068  0.39210550  0.12141129     0.31700
H270        H  0.22493258  0.23869189  0.26851905     0.31900
Zr271      Zr  0.25718914  0.74099166  0.01560761     2.17500
O272        O  0.24040943  0.74180994  0.94170044    -0.50400
O273        O  0.31188529  0.68887874  0.99038720    -0.73600
O274        O  0.29410787  0.80042358  0.97800298    -0.80400
O275        O  0.15211281  0.67330313  0.03884258    -0.82100
O276        O  0.33103133  0.84313876  0.02419062    -0.77800
O277        O  0.19228010  0.70387697  0.98678369    -0.89400
O278        O  0.34109529  0.65460385  0.04603447    -0.75400
O279        O  0.32032060  0.74871783  0.05923107    -0.84900
O280        O  0.25352084  0.68256813  0.06424300    -0.84500
O281        O  0.24952227  0.81097679  0.04811737    -0.71300
O282        O  0.18934976  0.74843030  0.05352592    -0.83400
Zr283      Zr  0.24441704  0.77113581  0.17956277     2.26400
Zr284      Zr  0.31275510  0.81794794  0.09288770     2.06300
Zr285      Zr  0.18740338  0.69204357  0.10422048     2.10000
Zr286      Zr  0.31611420  0.69083595  0.10783894     1.78800
O287        O  0.10784935  0.69372634  0.11539773    -0.92200
O288        O  0.39602036  0.70095056  0.10681963    -0.40100
O289        O  0.25055247  0.70055162  0.14797120    -0.76700
O290        O  0.31201609  0.75957832  0.14173369    -0.95400
O291        O  0.24531603  0.82820518  0.13018024    -0.88700
O292        O  0.18061027  0.76140891  0.13683174    -0.91500
C293        C  0.33698817  0.66027516  0.00698999     1.02200
C294        C  0.15948562  0.68149741  0.00050212     1.15200
C295        C  0.31896985  0.83292779  0.98743471     1.05900
O296        O  0.39289146  0.81964353  0.08612345    -0.93700
O297        O  0.34785618  0.84120036  0.15722213    -0.89400
O298        O  0.30921642  0.80943168  0.20930242    -0.82600
C299        C  0.34185278  0.83234460  0.19565489     1.12600
O300        O  0.15218920  0.84036342  0.01975479    -0.95600
Zr301      Zr  0.18270748  0.81727003  0.08600908     1.88900
O302        O  0.18950010  0.82529540  0.20061556    -0.72300
O303        O  0.30366644  0.89637933  0.09634662    -0.51600
O304        O  0.19219402  0.89519303  0.07703705    -0.96200
O305        O  0.10365312  0.80235427  0.08056872    -0.53500
O306        O  0.15142464  0.85086522  0.14516683    -0.72800
C307        C  0.15972860  0.84902352  0.18362959     0.99500
O308        O  0.24711023  0.76938067  0.25508310    -0.61600
O309        O  0.19062919  0.61304908  0.10206249    -0.56400
O310        O  0.21345159  0.71007864  0.21796250    -0.93100
O311        O  0.17444137  0.66614038  0.17457256    -0.91500
O312        O  0.30175838  0.61475604  0.12308987    -0.91900
O313        O  0.35240759  0.66493806  0.17036764    -0.90700
C314        C  0.18855859  0.67708800  0.21072561     1.18400
H315        H  0.25331330  0.65476381  0.05036986     0.34300
H316        H  0.33791918  0.75967253  0.15910166     0.45200
H317        H  0.15388845  0.76239486  0.15314865     0.38700
H318        H  0.24762167  0.83447791  0.02856329     0.35200
H319        H  0.40831890  0.67126192  0.10496265     0.27000
H320        H  0.33345037  0.90823465  0.09052482     0.32900
H321        H  0.16335929  0.90808060  0.08464891     0.38800
H322        H  0.32690072  0.59887904  0.11065167     0.33300
H323        H  0.16091138  0.60339605  0.11101445     0.32100
H324        H  0.09849704  0.66296459  0.11404597     0.33800
H325        H  0.08900460  0.82992915  0.08819744     0.32800
H326        H  0.33519479  0.67787248  0.19333023     0.36800
H327        H  0.27642077  0.75736908  0.26240044     0.29500
H328        H  0.26929156  0.74089014  0.92731930     0.33800
H329        H  0.13065891  0.86353404  0.02628586     0.36600
H330        H  0.19197231  0.60533284  0.07233284     0.29200
H331        H  0.24809478  0.80006349  0.26420126     0.42100
H332        H  0.39965963  0.79808091  0.06428510     0.32100
H333        H  0.40239913  0.71391119  0.07945502     0.39800
H334        H  0.09681174  0.78254381  0.10375184     0.31600
H335        H  0.28598669  0.90381455  0.07157607     0.31700
H336        H  0.22837334  0.77102602  0.93589465     0.31900
Zr337      Zr  0.22419597  0.77537476  0.52938862     2.17500
O338        O  0.22550430  0.78395717  0.45418073    -0.50400
O339        O  0.17101330  0.83378820  0.51547951    -0.73600
O340        O  0.18657166  0.71739486  0.49145163    -0.80400
O341        O  0.33247179  0.84052129  0.54145386    -0.82100
O342        O  0.15688147  0.66855448  0.53606288    -0.77800
O343        O  0.28829290  0.80606542  0.49490300    -0.89400
O344        O  0.14435698  0.86372248  0.57473579    -0.75400
O345        O  0.16543360  0.76575383  0.57738310    -0.84900
O346        O  0.23267842  0.83225702  0.57865470    -0.84500
O347        O  0.23709883  0.70440330  0.55837561    -0.71300
O348        O  0.29585103  0.76502917  0.56002711    -0.83400
Zr349      Zr  0.25451246  0.74313207  0.68956964     2.26400
Zr350      Zr  0.17732665  0.69491345  0.60604615     2.06300
Zr351      Zr  0.30345857  0.82192016  0.60942460     2.10000
Zr352      Zr  0.17537333  0.82165519  0.62827094     1.78800
O353        O  0.38380363  0.82319499  0.61377108    -0.92200
O354        O  0.09555324  0.81255323  0.63334893    -0.40100
O355        O  0.24580186  0.81336956  0.65940565    -0.76700
O356        O  0.18327290  0.75183810  0.65721924    -0.95400
O357        O  0.24756890  0.68567642  0.64006962    -0.88700
O358        O  0.31408676  0.75283457  0.64189177    -0.91500
C359        C  0.14755449  0.86139970  0.53569887     1.02200
C360        C  0.32218697  0.82904529  0.50441519     1.15200
C361        C  0.16558990  0.68210945  0.49913359     1.05900
O362        O  0.09691766  0.69394501  0.60306991    -0.93700
O363        O  0.15061033  0.67159524  0.67357365    -0.89400
O364        O  0.19518982  0.70150216  0.72297999    -0.82600
C365        C  0.16161282  0.67890019  0.71138048     1.12600
O366        O  0.33595372  0.67325866  0.52559496    -0.95600
Zr367      Zr  0.30662995  0.69607450  0.59249919     1.88900
O368        O  0.31167223  0.69172332  0.70973737    -0.72300
O369        O  0.18315428  0.61617259  0.60803531    -0.51600
O370        O  0.29318025  0.61936063  0.57903497    -0.96200
O371        O  0.38584309  0.70927074  0.58567748    -0.53500
O372        O  0.33828774  0.65948492  0.65173171    -0.72800
C373        C  0.33649261  0.66426062  0.69112559     0.99500
O374        O  0.25214452  0.75103608  0.76477264    -0.61600
O375        O  0.29834863  0.90086747  0.60764764    -0.56400
O376        O  0.28869807  0.80539733  0.72482126    -0.93100
O377        O  0.32304426  0.84801700  0.67708250    -0.91500
O378        O  0.18999544  0.89697739  0.64676666    -0.91900
O379        O  0.14846267  0.83842451  0.69748263    -0.90700
C380        C  0.31253560  0.83814529  0.71418390     1.18400
H381        H  0.23148394  0.86053189  0.56593360     0.34300
H382        H  0.15915700  0.75121263  0.67667000     0.45200
H383        H  0.34232580  0.75195732  0.65583398     0.38700
H384        H  0.23798302  0.68193993  0.53760601     0.35200
H385        H  0.08359193  0.84242816  0.63387932     0.27000
H386        H  0.15254589  0.60568795  0.60367330     0.32900
H387        H  0.31895820  0.60410466  0.59096731     0.38800
H388        H  0.16063275  0.91110936  0.64668228     0.33300
H389        H  0.32816719  0.91124448  0.61557222     0.32100
H390        H  0.39167739  0.85438201  0.61434273     0.33800
H391        H  0.39730612  0.71126233  0.61432136     0.32800
H392        H  0.17263411  0.82920084  0.71614899     0.36800
H393        H  0.22195908  0.76123391  0.77150941     0.29500
H394        H  0.19422654  0.78435682  0.44513969     0.33800
H395        H  0.35757270  0.65005659  0.53169441     0.36600
H396        H  0.29559821  0.90852977  0.57802740     0.29200
H397        H  0.25397857  0.72132418  0.77622142     0.42100
H398        H  0.08936018  0.71052694  0.57784389     0.32100
H399        H  0.08638607  0.80079709  0.60611440     0.39800
H400        H  0.38809465  0.73920921  0.57484783     0.31600
H401        H  0.19892838  0.60822911  0.58227748     0.31700
H402        H  0.23782260  0.75670045  0.44273153     0.31900
Zr403      Zr  0.26012664  0.25833412  0.68151246     2.17500
O404        O  0.25015383  0.25561730  0.75642032    -0.50400
O405        O  0.31622645  0.31013339  0.70372667    -0.73600
O406        O  0.29972816  0.19768113  0.71482852    -0.80400
O407        O  0.15628902  0.33097068  0.66763033    -0.82100
O408        O  0.32950610  0.15369936  0.66541124    -0.77800
O409        O  0.19838436  0.29604353  0.71569220    -0.89400
O410        O  0.34851484  0.33782077  0.64630390    -0.75400
O411        O  0.31903255  0.24922676  0.63293291    -0.84900
O412        O  0.25455258  0.31813641  0.63458962    -0.84500
O413        O  0.24745665  0.18928681  0.64853986    -0.71300
O414        O  0.18893284  0.25481066  0.64909984    -0.83400
Zr415      Zr  0.22938442  0.23264865  0.52034027     2.26400
Zr416      Zr  0.30594532  0.18105226  0.59838338     2.06300
Zr417      Zr  0.18456041  0.31275056  0.59979147     2.10000
Zr418      Zr  0.31238985  0.30833219  0.58598827     1.78800
O419        O  0.10431244  0.31788141  0.59672078    -0.92200
O420        O  0.39061109  0.29629144  0.57272147    -0.40100
O421        O  0.24281482  0.30240659  0.55129671    -0.76700
O422        O  0.30154244  0.24077526  0.55120057    -0.95400
O423        O  0.23400301  0.17410266  0.56781831    -0.88700
O424        O  0.17073129  0.24390827  0.56823468    -0.91500
C425        C  0.34422084  0.33485334  0.68561475     1.02200
C426        C  0.16595069  0.32062297  0.70493779     1.15200
C427        C  0.32205997  0.16423861  0.70322308     1.05900
O428        O  0.38632403  0.17680426  0.59915575    -0.93700
O429        O  0.33322958  0.15995456  0.52941605    -0.89400
O430        O  0.28643595  0.19193468  0.48384596    -0.82600
C431        C  0.32063579  0.16912186  0.49231787     1.12600
O432        O  0.15614052  0.16080263  0.68608629    -0.95600
Zr433      Zr  0.17654267  0.18644163  0.61735475     1.88900
O434        O  0.16938374  0.18219242  0.50344730    -0.72300
O435        O  0.29655774  0.10272626  0.59362956    -0.51600
O436        O  0.18333724  0.10783234  0.62115342    -0.96200
O437        O  0.09989047  0.20355991  0.63414746    -0.53500
O438        O  0.13507585  0.15770915  0.56140961    -0.72800
C439        C  0.13962605  0.16015935  0.52245027     0.99500
O440        O  0.22456364  0.23684289  0.44491107    -0.61600
O441        O  0.19463885  0.39123169  0.60302334    -0.56400
O442        O  0.19982224  0.29515617  0.48454179    -0.93100
O443        O  0.16585749  0.33993467  0.53048332    -0.91500
O444        O  0.30110632  0.38626345  0.57989842    -0.91900
O445        O  0.33932592  0.33803672  0.52099256    -0.90700
C446        C  0.17707484  0.32889970  0.49342498     1.18400
H447        H  0.25716433  0.34550125  0.64901067     0.34300
H448        H  0.32502665  0.24042682  0.53105003     0.45200
H449        H  0.14232714  0.24433518  0.55457815     0.38700
H450        H  0.24682262  0.16551478  0.66786706     0.35200
H451        H  0.40519584  0.32388373  0.58062293     0.27000
H452        H  0.32674293  0.09092568  0.59712012     0.32900
H453        H  0.15286146  0.09659255  0.61782094     0.38800
H454        H  0.32962393  0.39939325  0.58835172     0.33300
H455        H  0.16604870  0.40339969  0.59375641     0.32100
H456        H  0.09818915  0.34937346  0.59516210     0.33800
H457        H  0.08253019  0.17811492  0.62475504     0.32800
H458        H  0.32328290  0.32147825  0.49939051     0.36800
H459        H  0.25374660  0.24722180  0.43512006     0.29500
H460        H  0.28024720  0.25654371  0.76846250     0.33800
H461        H  0.13128279  0.14033881  0.68181146     0.36600
H462        H  0.19614220  0.39843906  0.63286499     0.29200
H463        H  0.22217618  0.20656514  0.43482314     0.42100
H464        H  0.39566960  0.19649421  0.62178734     0.32100
H465        H  0.39995484  0.27545244  0.59425364     0.39800
H466        H  0.09157687  0.22703539  0.61482463     0.31600
H467        H  0.28089686  0.09456818  0.61936826     0.31700
H468        H  0.23884018  0.22616091  0.76256336     0.31900
Zr469      Zr  0.74811128  0.76370146  0.17841657     2.17500
O470        O  0.73204884  0.76907526  0.25226471    -0.50400
O471        O  0.80885471  0.81078847  0.20096139    -0.73600
O472        O  0.78187697  0.70457433  0.21789315    -0.80400
O473        O  0.64350632  0.83187469  0.15611665    -0.82100
O474        O  0.82020230  0.66089267  0.17397019    -0.77800
O475        O  0.68294326  0.80036847  0.20782195    -0.89400
O476        O  0.84779531  0.83601639  0.14585510    -0.75400
O477        O  0.81141730  0.75552381  0.13525405    -0.84900
O478        O  0.74694741  0.82273574  0.13076600    -0.84500
O479        O  0.73895234  0.69362470  0.14603830    -0.71300
O480        O  0.68066647  0.75600199  0.13995252    -0.83400
Zr481      Zr  0.73676377  0.73769688  0.01441132     2.26400
Zr482      Zr  0.80318305  0.68585452  0.10317623     2.06300
Zr483      Zr  0.68029477  0.81436774  0.09167854     2.10000
Zr484      Zr  0.80889121  0.81340146  0.08615338     1.78800
O485        O  0.60093849  0.81293405  0.07907978    -0.92200
O486        O  0.88686409  0.80274818  0.07030316    -0.40100
O487        O  0.74296125  0.80743031  0.04683278    -0.76700
O488        O  0.80385621  0.74450662  0.05387545    -0.95400
O489        O  0.73717192  0.67872002  0.06241981    -0.88700
O490        O  0.67266952  0.74620257  0.05677961    -0.91500
C491        C  0.84096412  0.83179689  0.18435328     1.02200
C492        C  0.64992843  0.82266886  0.19430518     1.15200
C493        C  0.80698809  0.67184706  0.21052424     1.05900
O494        O  0.88314493  0.68163452  0.11075432    -0.93700
O495        O  0.83533060  0.66184258  0.03777553    -0.89400
O496        O  0.79714913  0.69413510  0.98532688    -0.82600
C497        C  0.82831736  0.66984803  0.99928344     1.12600
O498        O  0.63917979  0.66079372  0.16794079    -0.95600
Zr499      Zr  0.67370832  0.68798539  0.10487949     1.88900
O500        O  0.68009212  0.68979848  0.98660962    -0.72300
O501        O  0.79247805  0.60756025  0.10129597    -0.51600
O502        O  0.68520455  0.61024202  0.11277369    -0.96200
O503        O  0.59403132  0.69987650  0.10661249    -0.53500
O504        O  0.64696389  0.65703457  0.04122025    -0.72800
C505        C  0.65257556  0.66291005  0.00235219     0.99500
O506        O  0.75815918  0.74124376  0.94166182    -0.61600
O507        O  0.68307356  0.89335378  0.09656551    -0.56400
O508        O  0.70370428  0.79946154  0.97752090    -0.93100
O509        O  0.66672092  0.84221572  0.02340754    -0.91500
O510        O  0.79750302  0.89156452  0.08809917    -0.91900
O511        O  0.83424282  0.84623091  0.02191661    -0.90700
C512        C  0.67928689  0.83219063  0.98685979     1.18400
H513        H  0.74789319  0.85020900  0.14520154     0.34300
H514        H  0.82970742  0.74337747  0.03647041     0.45200
H515        H  0.64600686  0.74612685  0.04032940     0.38700
H516        H  0.73638092  0.67031783  0.16575470     0.35200
H517        H  0.90178479  0.82955916  0.07991519     0.27000
H518        H  0.82205323  0.59542596  0.10733295     0.32900
H519        H  0.65834889  0.59653058  0.10103654     0.38800
H520        H  0.82753312  0.90405275  0.09090070     0.33300
H521        H  0.65265386  0.90296557  0.09004619     0.32100
H522        H  0.59147674  0.84354500  0.08166462     0.33800
H523        H  0.58543624  0.70612085  0.07767214     0.32800
H524        H  0.81967935  0.82905700  0.99983330     0.36800
H525        H  0.73018148  0.74076622  0.92574344     0.29500
H526        H  0.76116713  0.77088910  0.26616371     0.33800
H527        H  0.61684530  0.63928608  0.15878967     0.36600
H528        H  0.68673580  0.89996378  0.12636926     0.29200
H529        H  0.77052822  0.77067383  0.93746373     0.42100
H530        H  0.89050126  0.70352304  0.13216255     0.32100
H531        H  0.89670369  0.78007145  0.08987859     0.39800
H532        H  0.59039811  0.72788571  0.12126275     0.31600
H533        H  0.77479664  0.60096635  0.12628192     0.31700
H534        H  0.71985198  0.74048814  0.26036415     0.31900
Zr535      Zr  0.73353788  0.73125357  0.68987376     2.17500
O536        O  0.73539814  0.72451944  0.76514651    -0.50400
O537        O  0.67764734  0.67617659  0.70615809    -0.73600
O538        O  0.69542499  0.79163545  0.72567727    -0.80400
O539        O  0.83965703  0.66245709  0.67535399    -0.82100
O540        O  0.66726068  0.83814143  0.67771337    -0.77800
O541        O  0.79758342  0.69728001  0.72366653    -0.89400
O542        O  0.65314994  0.64730171  0.64565201    -0.75400
O543        O  0.67667893  0.74444230  0.64015115    -0.84900
O544        O  0.74031730  0.67471742  0.63916616    -0.84500
O545        O  0.74882604  0.80202935  0.66154285    -0.71300
O546        O  0.80564803  0.73572404  0.65930948    -0.83400
Zr547      Zr  0.77005578  0.76549366  0.53134371     2.26400
Zr548      Zr  0.69237462  0.81424202  0.61019360     2.06300
Zr549      Zr  0.81163623  0.68082322  0.60712678     2.10000
Zr550      Zr  0.68383314  0.68828867  0.58973864     1.78800
O551        O  0.89171319  0.67802526  0.59994655    -0.92200
O552        O  0.60464550  0.70199391  0.58515083    -0.40100
O553        O  0.75470484  0.69474240  0.55817678    -0.76700
O554        O  0.69685217  0.75753150  0.55967670    -0.95400
O555        O  0.76515399  0.82119786  0.58212542    -0.88700
O556        O  0.82748262  0.75118539  0.57987544    -0.91500
C557        C  0.65451250  0.64900242  0.68507073     1.02200
C558        C  0.83044512  0.67331196  0.71275786     1.15200
C559        C  0.67396375  0.82599145  0.71511048     1.05900
O560        O  0.61209284  0.81938121  0.60892405    -0.93700
O561        O  0.66860182  0.84019810  0.54180888    -0.89400
O562        O  0.71416000  0.80773639  0.49527375    -0.82600
C563        C  0.68091651  0.83160534  0.50448571     1.12600
O564        O  0.84476264  0.81553251  0.70408616    -0.95600
Zr565      Zr  0.82081823  0.80552741  0.63252721     1.88900
O566        O  0.82907728  0.81795710  0.51963224    -0.72300
O567        O  0.70410682  0.89241699  0.61043500    -0.51600
O568        O  0.81359114  0.88179861  0.65143375    -0.96200
O569        O  0.89962403  0.79047067  0.64008925    -0.53500
O570        O  0.85622153  0.84577703  0.57969261    -0.72800
C571        C  0.85423314  0.84338141  0.54052525     0.99500
O572        O  0.78114751  0.76686821  0.45646637    -0.61600
O573        O  0.80560879  0.60206096  0.61088052    -0.56400
O574        O  0.79527213  0.70233518  0.49286221    -0.93100
O575        O  0.82503089  0.65290389  0.53676979    -0.91500
O576        O  0.69499887  0.61269466  0.57042086    -0.91900
O577        O  0.65250849  0.67089846  0.52219448    -0.90700
C578        C  0.81449179  0.66613107  0.50021970     1.18400
H579        H  0.73752676  0.64640310  0.65157872     0.34300
H580        H  0.67372427  0.75935119  0.53925429     0.45200
H581        H  0.85609667  0.75164697  0.56662426     0.38700
H582        H  0.74958224  0.82467139  0.68216103     0.35200
H583        H  0.59069777  0.67297616  0.58699724     0.27000
H584        H  0.67435407  0.90486067  0.61498488     0.32900
H585        H  0.84381601  0.89393621  0.64917164     0.38800
H586        H  0.66574146  0.59880176  0.57418908     0.33300
H587        H  0.83631401  0.59150209  0.60781403     0.32100
H588        H  0.89857386  0.64681232  0.59673041     0.33800
H589        H  0.91345864  0.81902751  0.64566896     0.32800
H590        H  0.67558080  0.67970305  0.50215754     0.36800
H591        H  0.75284837  0.75724617  0.44398868     0.29500
H592        H  0.70414485  0.72470636  0.77423522     0.33800
H593        H  0.86598430  0.84001197  0.70387509     0.36600
H594        H  0.79789856  0.59557590  0.63998901     0.29200
H595        H  0.78384034  0.79786997  0.44890674     0.42100
H596        H  0.60274746  0.79872112  0.58708200     0.32100
H597        H  0.59687846  0.71635827  0.61159373     0.39800
H598        H  0.91014973  0.78264928  0.61205764     0.31600
H599        H  0.72028367  0.89837614  0.63648529     0.31700
H600        H  0.74798202  0.75212486  0.77562467     0.31900
Zr601      Zr  0.76964223  0.22388270  0.17386375     2.17500
O602        O  0.77565357  0.22619045  0.24926566    -0.50400
O603        O  0.81803776  0.16262104  0.19015664    -0.73600
O604        O  0.70785568  0.18933023  0.20839165    -0.80400
O605        O  0.83615043  0.33058771  0.16793850    -0.82100
O606        O  0.66112514  0.15967041  0.16114198    -0.77800
O607        O  0.80288503  0.28344957  0.21201661    -0.89400
O608        O  0.84214504  0.12881528  0.13189734    -0.75400
O609        O  0.76060485  0.16746017  0.12453198    -0.84900
O610        O  0.83121856  0.23024281  0.12848094    -0.84500
O611        O  0.69931466  0.23981041  0.14212312    -0.71300
O612        O  0.76378898  0.29476893  0.14386899    -0.83400
Zr613      Zr  0.74660482  0.25461569  0.01306768     2.26400
Zr614      Zr  0.69041746  0.18187974  0.09329757     2.06300
Zr615      Zr  0.82478169  0.30070191  0.09804643     2.10000
Zr616      Zr  0.82109732  0.17514533  0.07734795     1.78800
O617        O  0.82840084  0.37943236  0.09348119    -0.92200
O618        O  0.81024567  0.10136632  0.05179530    -0.40100
O619        O  0.81630990  0.24471396  0.04695805    -0.76700
O620        O  0.75152307  0.18452134  0.04525032    -0.95400
O621        O  0.68552785  0.25110347  0.05965054    -0.88700
O622        O  0.75678094  0.31294486  0.06131734    -0.91500
C623        C  0.83869221  0.13236092  0.17082890     1.02200
C624        C  0.82447172  0.31833408  0.20448040     1.15200
C625        C  0.67291639  0.16820056  0.19863597     1.05900
O626        O  0.68298464  0.10327368  0.09546884    -0.93700
O627        O  0.66807715  0.15688165  0.02529305    -0.89400
O628        O  0.70518567  0.19690034  0.97723038    -0.82600
C629        C  0.67895909  0.16598890  0.98795521     1.12600
O630        O  0.67086058  0.34006684  0.17296820    -0.95600
Zr631      Zr  0.69632270  0.30855988  0.10790271     1.88900
O632        O  0.69134448  0.30653373  0.99016054    -0.72300
O633        O  0.61106902  0.19386239  0.08834499    -0.51600
O634        O  0.61676532  0.29929872  0.11587160    -0.96200
O635        O  0.71345598  0.38552223  0.11573094    -0.53500
O636        O  0.66535075  0.34168536  0.04687231    -0.72800
C637        C  0.66688302  0.33496548  0.00776450     0.99500
O638        O  0.76131632  0.25222690  0.93880209    -0.61600
O639        O  0.90443281  0.29457745  0.10785683    -0.56400
O640        O  0.81074454  0.28971841  0.98113375    -0.93100
O641        O  0.85560403  0.31830055  0.03106813    -0.91500
O642        O  0.90104720  0.18283345  0.08235644    -0.91900
O643        O  0.85478360  0.16196120  0.01004199    -0.90700
C644        C  0.84528385  0.31056242  0.99327365     1.18400
H645        H  0.85872554  0.22689356  0.14332831     0.34300
H646        H  0.75088504  0.16071474  0.02587164     0.45200
H647        H  0.75759085  0.34048019  0.04714548     0.38700
H648        H  0.67531083  0.24110101  0.16170610     0.35200
H649        H  0.83778252  0.08578194  0.05896296     0.27000
H650        H  0.59781630  0.16478806  0.09238553     0.32900
H651        H  0.60361825  0.32632149  0.10490264     0.38800
H652        H  0.91247967  0.15277632  0.08135366     0.33300
H653        H  0.91617867  0.32371728  0.10114141     0.32100
H654        H  0.86018226  0.38649081  0.09641869     0.33800
H655        H  0.71869739  0.39644350  0.08736758     0.32800
H656        H  0.83502213  0.17663437  0.99006870     0.36800
H657        H  0.77226966  0.22255083  0.93309312     0.29500
H658        H  0.77542392  0.19557470  0.25847049     0.33800
H659        H  0.64913181  0.36262893  0.16523382     0.36600
H660        H  0.90868849  0.29187242  0.13812428     0.29200
H661        H  0.73210795  0.25375366  0.92505116     0.42100
H662        H  0.70944173  0.09318564  0.11066979     0.32100
H663        H  0.78749962  0.08876913  0.07024859     0.39800
H664        H  0.74292306  0.38619051  0.12905193     0.31600
H665        H  0.60337610  0.21006770  0.11382009     0.31700
H666        H  0.74746051  0.23845485  0.25954625     0.31900
Zr667      Zr  0.74153204  0.25903062  0.69176910     2.17500
O668        O  0.75064926  0.25154241  0.76650098    -0.50400
O669        O  0.69003632  0.31343664  0.71778606    -0.73600
O670        O  0.80643865  0.29759948  0.71915380    -0.80400
O671        O  0.66597531  0.15875860  0.68493139    -0.82100
O672        O  0.84669348  0.32609259  0.66611935    -0.77800
O673        O  0.70917462  0.19749502  0.72949007    -0.89400
O674        O  0.66339613  0.35090929  0.66288803    -0.75400
O675        O  0.74775602  0.31614710  0.64215405    -0.84900
O676        O  0.67608652  0.25520986  0.65028803    -0.84500
O677        O  0.80829350  0.24535447  0.65320364    -0.71300
O678        O  0.74122701  0.18902881  0.65962511    -0.83400
Zr679      Zr  0.74980695  0.22729705  0.52878798     2.26400
Zr680      Zr  0.81288733  0.30170900  0.60169758     2.06300
Zr681      Zr  0.67727373  0.18623817  0.61604219     2.10000
Zr682      Zr  0.68283358  0.31155837  0.60069955     1.78800
O683        O  0.66590581  0.10797293  0.61623166    -0.92200
O684        O  0.69659778  0.38783002  0.58573167    -0.40100
O685        O  0.68253334  0.24266505  0.56572854    -0.76700
O686        O  0.74736170  0.29832459  0.56022469    -0.95400
O687        O  0.81450295  0.23109390  0.57071249    -0.88700
O688        O  0.74331439  0.17075930  0.57852128    -0.91500
C689        C  0.66731484  0.34421435  0.70183940     1.02200
C690        C  0.68199464  0.16658407  0.72083399     1.15200
C691        C  0.83929804  0.31931618  0.70470030     1.05900
O692        O  0.81655625  0.38056065  0.59851928    -0.93700
O693        O  0.82987523  0.32481277  0.53041657    -0.89400
O694        O  0.78946263  0.28135964  0.48776458    -0.82600
C695        C  0.81593327  0.31332651  0.49422219     1.12600
O696        O  0.84273734  0.15489014  0.68670619    -0.95600
Zr697      Zr  0.80708069  0.17574563  0.62193968     1.88900
O698        O  0.79711475  0.16670102  0.50786130    -0.72300
O699        O  0.89217236  0.29158009  0.59322527    -0.51600
O700        O  0.88710710  0.18329905  0.61634872    -0.96200
O701        O  0.79077798  0.10097264  0.64134992    -0.53500
O702        O  0.82846026  0.13420289  0.56371990    -0.72800
C703        C  0.82144031  0.13783653  0.52518019     0.99500
O704        O  0.74410197  0.23483444  0.45378143    -0.61600
O705        O  0.59865156  0.20029412  0.62527611    -0.56400
O706        O  0.68364577  0.19293352  0.49950920    -0.93100
O707        O  0.64455502  0.16163386  0.55143244    -0.91500
O708        O  0.60278358  0.30417358  0.60475465    -0.91900
O709        O  0.64703510  0.33705344  0.53777454    -0.90700
C710        C  0.65125595  0.16995338  0.51308040     1.18400
H711        H  0.64969265  0.25826437  0.66688145     0.34300
H712        H  0.74691104  0.32109165  0.53983355     0.45200
H713        H  0.74061692  0.14262648  0.56553819     0.38700
H714        H  0.83428514  0.24464183  0.67047341     0.35200
H715        H  0.66902001  0.40288655  0.59381437     0.27000
H716        H  0.90484732  0.32108252  0.59600617     0.32900
H717        H  0.89831834  0.15354201  0.61162130     0.38800
H718        H  0.59187492  0.33394005  0.61003269     0.33300
H719        H  0.58936282  0.21459795  0.59929239     0.32100
H720        H  0.63352604  0.10406311  0.61875209     0.33800
H721        H  0.81640440  0.08389518  0.63150672     0.36200
H722        H  0.65992236  0.31906781  0.51541473     0.36800
H723        H  0.74171892  0.20496444  0.44264578     0.29500
H724        H  0.75193032  0.28143007  0.77774765     0.33800
H725        H  0.86431486  0.13201999  0.67936685     0.36600
H726        H  0.58451809  0.17132570  0.62411263     0.29200
H727        H  0.71495114  0.24828478  0.44844729     0.42100
H728        H  0.80471941  0.39068571  0.62541229     0.32100
H729        H  0.71852681  0.39711305  0.60672464     0.39800
H730        H  0.76614711  0.09204989  0.62301680     0.31600
H731        H  0.90173201  0.27626375  0.61858842     0.31700
H732        H  0.78066871  0.23956412  0.77068829     0.31900
O733        O  0.89107532  0.05819963  0.28100304    -0.74400
O734        O  0.93658549  0.02627809  0.23340842    -0.53300
C735        C  0.90409111  0.05064909  0.24409934     0.79400
O736        O  0.06095472  0.09912493  0.41439894    -0.59000
O737        O  0.03202501  0.05923354  0.46745640    -0.52000
C738        C  0.05617945  0.08981459  0.45265986     0.71400
O739        O  0.05321128  0.09179970  0.27844543    -0.73500
O740        O  0.02994205  0.04011066  0.23236869    -0.54100
C741        C  0.04947649  0.07577357  0.24211886     0.77400
O742        O  0.88146387  0.05959740  0.41625065    -0.58700
O743        O  0.93091539  0.04346278  0.46742975    -0.51800
C744        C  0.89468942  0.05989869  0.45374137     0.74000
Zr745      Zr  0.91075911  0.03919761  0.35037061     2.54700
O746        O  0.88566559  0.11415278  0.34958637    -0.79200
O747        O  0.83566983  0.01097235  0.34599846    -0.92700
Zr748      Zr  0.03574539  0.07298610  0.34843221     2.64700
O749        O  0.00630886  0.14636728  0.34569803    -0.97600
O750        O  0.11168307  0.09892114  0.34429735    -0.79700
O751        O  0.97340109  0.05317709  0.30897861    -0.83000
O752        O  0.97264934  0.06166060  0.38982561    -2.17700
O753        O  0.92205941  0.90196777  0.42976635    -0.66400
O754        O  0.94920286  0.95153761  0.47603981    -0.51000
C755        C  0.92694447  0.91762384  0.46619137     0.72300
O756        O  0.09295109  0.92114083  0.29336756    -0.59300
O757        O  0.04781073  0.94382166  0.24102224    -0.51300
C758        C  0.08109173  0.92276574  0.25548818     0.74200
O759        O  0.09308358  0.93604962  0.42741967    -0.70700
O760        O  0.04477794  0.96439815  0.47466371    -0.49400
C761        C  0.07901343  0.94229147  0.46419294     0.75500
O762        O  0.92211635  0.88791780  0.29426386    -0.66100
O763        O  0.94822847  0.92983772  0.24129013    -0.53300
C764        C  0.92580831  0.89792646  0.25608388     0.73900
Zr765      Zr  0.94492978  0.91670309  0.35989094     2.77500
O766        O  0.97802309  0.84492084  0.36516632    -0.96800
O767        O  0.87099439  0.88568275  0.36308840    -0.77600
Zr768      Zr  0.06985482  0.95117295  0.35820354     2.70100
O769        O  0.10255937  0.87962913  0.36578285    -0.78900
O770        O  0.14276050  0.98442538  0.35416310    -0.98000
Zr771      Zr  0.99078187  0.98732672  0.27410160     2.21500
Zr772      Zr  0.98958043  0.00239879  0.43410506     2.11100
O773        O  0.00700311  0.93625011  0.39937372    -2.46600
O774        O  0.00812770  0.92841319  0.31859890    -0.78700
O775        O  0.92623198  0.98124474  0.39542055    -0.70900
O776        O  0.05455387  0.00849814  0.31260404    -2.31800
O777        O  0.92640317  0.97438111  0.31488580    -2.28000
O778        O  0.05387366  0.01592299  0.39395422    -0.72600
H779        H  0.96629688  0.08770947  0.40536698     0.79400
H780        H  0.07986776  0.01291802  0.29490607     0.80500
H781        H  0.01260918  0.91290722  0.41851911     0.82700
H782        H  0.90091143  0.96753012  0.29810016     0.80300
H783        H  0.10920980  0.13087556  0.34242717     0.43300
H784        H  0.14734585  0.99789504  0.38168533     0.42300
H785        H  0.07802789  0.85927551  0.35972223     0.42000
H786        H  0.98046851  0.83940367  0.39525225     0.39900
H787        H  0.85104160  0.91103381  0.36140649     0.43000
H788        H  0.81661677  0.03680363  0.34945136     0.37800
H789        H  0.91176819  0.13128787  0.35832733     0.43900
H790        H  0.03220098  0.16490164  0.33944442     0.40400
H791        H  0.95458144  0.82479386  0.35562098     0.45300
H792        H  0.83159652  0.99433229  0.37189602     0.44000
H793        H  0.98838875  0.14696522  0.32005453     0.44100
H794        H  0.16345457  0.95959359  0.35359190     0.44500
O795        O  0.42402913  0.90833556  0.92555479    -0.74400
O796        O  0.37103565  0.94832763  0.89255959    -0.53300
C797        C  0.38383522  0.91711072  0.91623877     0.79400
O798        O  0.57074580  0.09114389  0.92558071    -0.59000
O799        O  0.62455955  0.04995113  0.89522252    -0.52000
C800        C  0.61114236  0.08217469  0.91739902     0.71400
O801        O  0.42503772  0.08674099  0.93290491    -0.73500
O802        O  0.37135897  0.05056466  0.89687466    -0.54100
C803        C  0.38451362  0.07903977  0.92349621     0.77400
O804        O  0.57119427  0.90510060  0.92326940    -0.58700
O805        O  0.62531050  0.94663793  0.89392646    -0.51800
C806        C  0.61179956  0.91438028  0.91569219     0.74000
Zr807      Zr  0.49780246  0.93417300  0.91020960     2.54700
O808        O  0.49974676  0.93972480  0.98538769    -0.79200
O809        O  0.49845119  0.85515173  0.91269575    -0.92700
Zr810      Zr  0.49827026  0.06023390  0.91473896     2.64700
O811        O  0.50243335  0.04303795  0.98810866    -0.97600
O812        O  0.49784658  0.13741780  0.93069070    -0.79700
O813        O  0.45319350  0.99756681  0.91348463    -0.83000
O814        O  0.54279031  0.99689528  0.91405389    -2.17700
O815        O  0.56826703  0.90499587  0.77751309    -0.66400
O816        O  0.62346860  0.94449230  0.80789799    -0.51000
C817        C  0.60900336  0.91250931  0.78579377     0.72300
O818        O  0.42858491  0.09106402  0.77180618    -0.59300
O819        O  0.37374495  0.05288079  0.80421655    -0.51300
C820        C  0.38788680  0.08263085  0.77930664     0.74200
O821        O  0.57496852  0.09277993  0.78154741    -0.70700
O822        O  0.62753012  0.04935888  0.81064792    -0.49400
C823        C  0.61516530  0.08259317  0.78967154     0.75500
O824        O  0.42258367  0.91234112  0.77347782    -0.66100
O825        O  0.36968686  0.95213011  0.80680089    -0.53300
C826        C  0.38232297  0.92119159  0.78285079     0.73900
Zr827      Zr  0.49700070  0.93905551  0.78721176     2.77500
O828        O  0.50090186  0.95825295  0.71428291    -0.96800
O829        O  0.49327614  0.86362373  0.76492612    -0.77600
Zr830      Zr  0.50057492  0.06492300  0.79201082     2.70100
O831        O  0.50479776  0.05863056  0.71699243    -0.78900
O832        O  0.49897891  0.14390433  0.79109336    -0.98000
Zr833      Zr  0.41143019  0.00141209  0.85063554     2.21500
Zr834      Zr  0.58505909  0.99792763  0.85136792     2.11100
O835        O  0.54367727  0.00093490  0.78825099    -2.46600
O836        O  0.45399586  0.00298866  0.78824614    -0.78700
O837        O  0.53964783  0.93485332  0.84859711    -0.70900
O838        O  0.45670493  0.06481517  0.85287713    -2.31800
O839        O  0.45508360  0.93661222  0.84885439    -2.28000
O840        O  0.54164629  0.06216722  0.85385217    -0.72600
H841        H  0.56178231  0.99601927  0.93809045     0.79400
H842        H  0.43893895  0.09080807  0.85340389     0.80500
H843        H  0.56299303  0.00132583  0.76444342     0.82700
H844        H  0.43686051  0.91091115  0.84831046     0.80300
H845        H  0.49414375  0.15167570  0.90348267     0.43300
H846        H  0.51880559  0.15289541  0.81396794     0.42300
H847        H  0.51257938  0.08816013  0.70744179     0.42000
H848        H  0.52040825  0.93597496  0.70190436     0.39900
H849        H  0.49142973  0.84686552  0.79097845     0.43000
H850        H  0.47707164  0.84581422  0.89122593     0.37800
H851        H  0.50745594  0.91016468  0.99485594     0.43900
H852        H  0.50973960  0.07100673  0.00161960     0.40400
H853        H  0.47114115  0.95138790  0.70329471     0.45300
H854        H  0.48428640  0.84748125  0.93931840     0.44000
H855        H  0.47146895  0.03716667  0.99630296     0.44100
H856        H  0.51482632  0.15234641  0.76553578     0.44500
O857        O  0.09562137  0.42883768  0.92888731    -0.74400
O858        O  0.05739439  0.37520424  0.89520001    -0.53300
C859        C  0.08767022  0.38902331  0.92016580     0.79400
O860        O  0.90732128  0.56332280  0.93372295    -0.59000
O861        O  0.94382762  0.61867938  0.90124488    -0.52000
C862        C  0.91395727  0.60358490  0.92594730     0.71400
O863        O  0.91551089  0.41974808  0.93126148    -0.73500
O864        O  0.95554066  0.36957597  0.89501904    -0.54100
C865        C  0.92541126  0.38067618  0.92107050     0.77400
O866        O  0.08998333  0.57225481  0.93235075    -0.58700
O867        O  0.04732234  0.62401556  0.90142293    -0.51800
C868        C  0.07870405  0.61175261  0.92578109     0.74000
Zr869      Zr  0.06739492  0.49976445  0.91182315     2.54700
O870        O  0.06400736  0.49826007  0.98708050    -0.79200
O871        O  0.14768948  0.50531573  0.90989124    -0.92700
Zr872      Zr  0.93876442  0.49350642  0.91621304     2.64700
O873        O  0.95365236  0.49151661  0.99025861    -0.97600
O874        O  0.85932126  0.48927040  0.92734911    -0.79700
O875        O  0.00499872  0.45299673  0.91398691    -0.83000
O876        O  0.00116274  0.54010274  0.91632084    -2.17700
O877        O  0.08886663  0.57271443  0.77567584    -0.66400
O878        O  0.04959414  0.62407213  0.81123981    -0.51000
C879        C  0.08004960  0.61195526  0.78571898     0.72300
O880        O  0.91192591  0.42601883  0.77181998    -0.59300
O881        O  0.95313531  0.37371562  0.80383498    -0.51300
C882        C  0.92250416  0.38648205  0.77878121     0.74200
O883        O  0.90561627  0.56893295  0.77838740    -0.70700
O884        O  0.94498355  0.62221996  0.81127500    -0.49400
C885        C  0.91405928  0.60873752  0.78691002     0.75500
O886        O  0.09165849  0.42935892  0.77078512    -0.66100
O887        O  0.05542534  0.37506983  0.80493494    -0.53300
C888        C  0.08474777  0.38923071  0.77940512     0.73900
Zr889      Zr  0.06243886  0.50040472  0.78945978     2.77500
O890        O  0.04572024  0.50162252  0.71570296    -0.96800
O891        O  0.14162560  0.50193865  0.77646333    -0.77600
Zr892      Zr  0.93386689  0.49752210  0.79438455     2.70100
O893        O  0.93363307  0.50196980  0.71918920    -0.78900
O894        O  0.85382049  0.49289979  0.80084453    -0.98000
Zr895      Zr  0.00383947  0.41241703  0.85073992     2.21500
Zr896      Zr  0.99777698  0.58361594  0.85517287     2.11100
O897        O  0.99710015  0.54270422  0.79197335    -2.46600
O898        O  0.99928758  0.45539902  0.78950081    -0.78700
O899        O  0.06427958  0.54229396  0.85125697    -0.70900
O900        O  0.93687521  0.45323617  0.85390530    -2.31800
O901        O  0.06769186  0.45817072  0.85004769    -2.28000
O902        O  0.93411504  0.53785777  0.85656774    -0.72600
H903        H  0.00109803  0.55794269  0.94094798     0.79400
H904        H  0.91133412  0.43440224  0.85377262     0.80500
H905        H  0.99576512  0.56165999  0.76823825     0.82700
H906        H  0.09454865  0.44132900  0.84911610     0.80300
H907        H  0.84634222  0.49387430  0.89957574     0.43300
H908        H  0.84587430  0.51642981  0.82036767     0.42300
H909        H  0.95508145  0.47967375  0.71013890     0.42000
H910        H  0.05064894  0.53208314  0.70721013     0.39900
H911        H  0.15514439  0.49908498  0.80423357     0.43000
H912        H  0.15696146  0.48457885  0.88813862     0.37800
H913        H  0.04815742  0.47101712  0.99368259     0.43900
H914        H  0.95186148  0.52213369  0.99940196     0.40400
H915        H  0.07021000  0.48532813  0.70263933     0.45300
H916        H  0.15781706  0.49212743  0.93614069     0.44000
H917        H  0.92715727  0.47756868  0.00236988     0.44100
H918        H  0.84236115  0.50271931  0.77373891     0.44500
C919        C  0.64799861  0.11115985  0.77296379    -0.12400
C920        C  0.66784193  0.13768962  0.75287803    -0.13900
C921        C  0.86708077  0.08302269  0.48127532    -0.12400
C922        C  0.84394590  0.10738868  0.50013922    -0.13900
C923        C  0.89674905  0.35518948  0.75616580    -0.12400
C924        C  0.87081799  0.33670993  0.73375471    -0.13900
C925        C  0.64276900  0.11113031  0.93560905    -0.12400
C926        C  0.66178069  0.13764856  0.95656211    -0.13900
C927        C  0.89976982  0.34767376  0.94094047    -0.12400
C928        C  0.87479369  0.32736675  0.96253554    -0.13900
C929        C  0.86048775  0.09993750  0.19397555    -0.12400
C930        C  0.88095859  0.07395976  0.21344479    -0.13900
C931        C  0.65749371  0.85466582  0.74685740    -0.12400
C932        C  0.63956223  0.88207831  0.76777251    -0.13900
C933        C  0.85999975  0.65779339  0.74424430    -0.12400
C934        C  0.88609174  0.63956602  0.76645980    -0.13900
C935        C  0.88225784  0.87170587  0.51846203    -0.12400
C936        C  0.90462273  0.89484398  0.49765972    -0.13900
C937        C  0.85874144  0.65123411  0.96982237    -0.12400
C938        C  0.88509657  0.63299816  0.94765149    -0.13900
C939        C  0.66391947  0.86026963  0.95463708    -0.12400
C940        C  0.64384947  0.88602504  0.93389171    -0.13900
C941        C  0.89947601  0.87278277  0.22895896    -0.12400
C942        C  0.87233952  0.85266421  0.21007792    -0.13900
C943        C  0.08221342  0.11491704  0.48012165    -0.12400
C944        C  0.10850118  0.13627040  0.49884797    -0.13900
C945        C  0.35699290  0.10964775  0.75729403    -0.12400
C946        C  0.33898315  0.13527320  0.73450721    -0.13900
C947        C  0.13779337  0.33842297  0.73655525    -0.12400
C948        C  0.11267784  0.35853772  0.75839467    -0.13900
C949        C  0.10719038  0.64363668  0.76548248    -0.12400
C950        C  0.13282459  0.66188143  0.74279010    -0.13900
C951        C  0.12332238  0.89295608  0.51356966    -0.12400
C952        C  0.10234193  0.91905892  0.49473240    -0.13900
C953        C  0.32916106  0.86679024  0.74538933    -0.12400
C954        C  0.34970182  0.89310432  0.76515154    -0.13900
C955        C  0.12876249  0.66361834  0.97082204    -0.12400
C956        C  0.10391878  0.64372933  0.94832451    -0.13900
C957        C  0.33359817  0.86158040  0.95526637    -0.12400
C958        C  0.35181136  0.88852002  0.93428035    -0.13900
C959        C  0.10782278  0.89822889  0.22807892    -0.12400
C960        C  0.13264361  0.87557744  0.20898555    -0.13900
C961        C  0.11548186  0.35861097  0.94115622    -0.12400
C962        C  0.14064432  0.34024997  0.96411477    -0.13900
C963        C  0.35221826  0.10487982  0.94516751    -0.12400
C964        C  0.33120047  0.12858973  0.96763868    -0.13900
C965        C  0.09580745  0.12312706  0.19253584    -0.12400
C966        C  0.07157098  0.09971273  0.21123572    -0.13900
C967        C  0.16565336  0.35702294  0.45783203    -0.15500
C968        C  0.14030369  0.39257328  0.46077739    -0.30700
H969        H  0.18134864  0.34963962  0.42839515     0.13500
H970        H  0.12599109  0.40096358  0.49057206     0.14100
C971        C  0.15085808  0.61434258  0.24388917    -0.15500
C972        C  0.17731281  0.64938113  0.24677588    -0.30700
H973        H  0.13611388  0.60635307  0.21415089     0.13500
H974        H  0.19347169  0.65651351  0.27606242     0.14100
C975        C  0.13478547  0.61600605  0.46332525    -0.15500
C976        C  0.15564897  0.65461484  0.46216242    -0.30700
H977        H  0.12155172  0.60516639  0.49280576     0.13500
H978        H  0.17090573  0.66470383  0.43333155     0.14100
C979        C  0.15376166  0.35016582  0.24420085    -0.15500
C980        C  0.13651734  0.39038229  0.24129585    -0.30700
H981        H  0.16640543  0.33946875  0.27391014     0.13500
H982        H  0.12606049  0.40152818  0.21096927     0.14100
C983        C  0.38657969  0.86735339  0.47392387    -0.15500
C984        C  0.35204155  0.84019264  0.47003403    -0.30700
H985        H  0.39263934  0.88316923  0.50348096     0.13500
H986        H  0.34694665  0.82301671  0.44100853     0.14100
C987        C  0.61561147  0.83814070  0.22366004    -0.15500
C988        C  0.61463404  0.82724620  0.26391791    -0.30700
H989        H  0.58914591  0.85809823  0.21132352     0.13500
H990        H  0.64178119  0.80868018  0.27689635     0.14100
C991        C  0.61720108  0.87045891  0.47246904    -0.15500
C992        C  0.65316591  0.84513997  0.46902873    -0.30700
H993        H  0.61001402  0.88512409  0.50231248     0.13500
H994        H  0.65965547  0.82879846  0.43985311     0.14100
C995        C  0.37692721  0.84734697  0.22492885    -0.15500
C996        C  0.37915193  0.83477557  0.26483409    -0.30700
H997        H  0.40349312  0.86721831  0.21254291     0.13500
H998        H  0.35212497  0.81595111  0.27780628     0.14100
C999        C  0.84537401  0.60090403  0.46450840    -0.15500
C1000       C  0.82195324  0.63787976  0.46360647    -0.30700
H1001       H  0.86048197  0.59106292  0.49351507     0.13500
H1002       H  0.80532675  0.64696234  0.43510983     0.14100
C1003       C  0.83306022  0.34638709  0.24097568    -0.15500
C1004       C  0.85530719  0.38410035  0.23961987    -0.30700
H1005       H  0.81701082  0.33708059  0.26970217     0.13500
H1006       H  0.86957223  0.39440244  0.21038267     0.14100
C1007       C  0.82732070  0.34000731  0.45719836    -0.15500
C1008       C  0.85005375  0.37758360  0.45931041    -0.30700
H1009       H  0.81172070  0.33110764  0.42808566     0.13500
H1010       H  0.86370607  0.38730270  0.48903262     0.14100
C1011       C  0.84335732  0.60804120  0.24443621    -0.15500
C1012       C  0.81828263  0.64409178  0.24689074    -0.30700
H1013       H  0.85802771  0.59987507  0.21474476     0.13500
H1014       H  0.80204286  0.65161929  0.27600866     0.14100
C1015       C  0.61753973  0.16333095  0.44290466    -0.15500
C1016       C  0.61806102  0.15284911  0.48337016    -0.30700
H1017       H  0.64488973  0.18173842  0.42997926     0.13500
H1018       H  0.59152795  0.13291135  0.49572237     0.14100
C1019       C  0.37744711  0.13217462  0.24099004    -0.15500
C1020       C  0.34040690  0.15585033  0.24527672    -0.30700
H1021       H  0.38494758  0.11813838  0.21092794     0.13500
H1022       H  0.33357711  0.17139571  0.27479975     0.14100
C1023       C  0.38855157  0.13887408  0.45889915    -0.15500
C1024       C  0.34807375  0.15661684  0.45609919    -0.30700
H1025       H  0.40129747  0.13080498  0.48936501     0.13500
H1026       H  0.33653231  0.16762435  0.42607986     0.14100
C1027       C  0.64386049  0.15716823  0.23388415    -0.15500
C1028       C  0.60654797  0.13367844  0.23115895    -0.30700
H1029       H  0.65200359  0.17270293  0.26312563     0.13500
H1030       H  0.59714964  0.12009331  0.20136592     0.14100
C1031       C  0.62307741  0.39978658  0.99446127    -0.15500
C1032       C  0.63692286  0.36074780  0.98165742    -0.30700
H1033       H  0.63778022  0.41466755  0.02174211     0.13500
H1034       H  0.62380824  0.34660798  0.95336515     0.14100
C1035       C  0.37799952  0.59355498  0.99350358    -0.15500
C1036       C  0.36427361  0.63242127  0.97985590    -0.30700
H1037       H  0.36448435  0.58076012  0.02218160     0.13500
H1038       H  0.37531240  0.64462927  0.95009054     0.14100
C1039       C  0.60679519  0.60005592  0.98800270    -0.15500
C1040       C  0.62466754  0.63704925  0.97424032    -0.30700
H1041       H  0.61554667  0.58778057  0.01844205     0.13500
H1042       H  0.61784790  0.64849228  0.94312176     0.14100
C1043       C  0.39480717  0.38593754  0.01568127    -0.15500
C1044       C  0.36645910  0.35817256  0.99778109    -0.30700
H1045       H  0.39767339  0.38731234  0.04918024     0.13500
H1046       H  0.36465584  0.35628727  0.96422854     0.14100
C1047       C  0.62817445  0.61570085  0.70595296    -0.15500
C1048       C  0.60752623  0.62099493  0.74228053    -0.30700
H1049       H  0.62119985  0.58653098  0.68801067     0.13500
H1050       H  0.60991438  0.65135053  0.75927209     0.14100
C1051       C  0.62983833  0.41255160  0.71824173    -0.15500
C1052       C  0.64151307  0.37236889  0.72985692    -0.30700
H1053       H  0.64519433  0.42711451  0.69121170     0.13500
H1054       H  0.62746532  0.35827546  0.75769868     0.14100
C1055       C  0.40289573  0.38894529  0.69427894    -0.15500
C1056       C  0.37291330  0.36254100  0.71167196    -0.30700
H1057       H  0.40766337  0.38875924  0.66094734     0.13500
H1058       H  0.36877328  0.36229719  0.74507437     0.14100
C1059       C  0.38210544  0.59945010  0.70229825    -0.15500
C1060       C  0.36584989  0.63703567  0.71679223    -0.30700
H1061       H  0.37050770  0.58690088  0.67274566     0.13500
H1062       H  0.37509571  0.64828990  0.74749674     0.14100
loop_ 
_geom_bond_atom_site_label_1 
_geom_bond_atom_site_label_2 
_geom_bond_distance 
_geom_bond_site_symmetry_2 
_ccdc_geom_bond_type 
N1            C6   1.356       .  A
N1            C5   1.354       .  A
N1           H33   1.041       .  S
N2            C9   1.353       .  A
N2           C10   1.352       .  A
N3            C8   1.355       .  A
N3            C7   1.357       .  A
N3           H34   1.041       .  S
N4           C11   1.353       .  A
N4           C12   1.351       .  A
C5           C13   1.387       .  A
C5           C21   1.413       .  A
C6           C22   1.416       .  A
C6           C14   1.389       .  A
C7           C15   1.388       .  A
C7           C24   1.417       .  A
C8           C23   1.416       .  A
C8           C16   1.388       .  A
C9           C21   1.411       .  A
C9           C17   1.388       .  A
C10          C24   1.410       .  A
C10          C18   1.385       .  A
C11          C19   1.384       .  A
C11          C22   1.409       .  A
C12          C20   1.387       .  A
C12          C23   1.413       .  A
C13          C14   1.368       .  A
C13          H25   1.082       .  S
C14          H26   1.081       .  S
C15          C16   1.371       .  A
C15          H27   1.082       .  S
C16          H28   1.082       .  S
C17          C18   1.370       .  A
C17          H29   1.082       .  S
C18          H30   1.083       .  S
C19          C20   1.372       .  A
C19          H31   1.083       .  S
C20          H32   1.083       .  S
C21        C1055   1.481       .  S
C22        C1051   1.487       .  S
C23        C1048   1.487       .  S
C24        C1059   1.489       .  S
N35          C40   1.356       .  A
N35          C39   1.355       .  A
N35          H67   1.042       .  S
N36          C43   1.348       .  A
N36          C44   1.350       .  A
N37          C42   1.353       .  A
N37          C41   1.355       .  A
N37          H68   1.041       .  S
N38          C45   1.353       .  A
N38          C46   1.353       .  A
C39          C47   1.387       .  A
C39          C55   1.414       .  A
C40          C56   1.417       .  A
C40          C48   1.388       .  A
C41          C49   1.388   1_556  A
C41          C58   1.414       .  A
C42          C57   1.412       .  A
C42          C50   1.388   1_556  A
C43          C55   1.403       .  A
C43          C51   1.387       .  A
C44          C58   1.406       .  A
C44          C52   1.385       .  A
C45          C53   1.386       .  A
C45          C56   1.411       .  A
C46          C54   1.386       .  A
C46          C57   1.411       .  A
C47          C48   1.371       .  A
C47          H59   1.082   1_556  S
C48          H60   1.082   1_556  S
C49          C50   1.371       .  A
C49          H61   1.082       .  S
C50          H62   1.082       .  S
C51          C52   1.370       .  A
C51          H63   1.083       .  S
C52          H64   1.083       .  S
C53          C54   1.370       .  A
C53          H65   1.083       .  S
C54          H66   1.082       .  S
C55        C1039   1.474       .  S
C56        C1035   1.487       .  S
C57        C1043   1.482   1_556  S
C58        C1031   1.481       .  S
N69          C74   1.355       .  A
N69          C73   1.357       .  A
N69         H101   1.042       .  S
N70          C77   1.352       .  A
N70          C78   1.353       .  A
N71          C76   1.355       .  A
N71          C75   1.356       .  A
N71         H102   1.041       .  S
N72          C79   1.355       .  A
N72          C80   1.354       .  A
C73          C81   1.388       .  A
C73          C89   1.421       .  A
C74          C90   1.416       .  A
C74          C82   1.386       .  A
C75          C83   1.387       .  A
C75          C92   1.416       .  A
C76          C91   1.417       .  A
C76          C84   1.389       .  A
C77          C89   1.413       .  A
C77          C85   1.385       .  A
C78          C92   1.420       .  A
C78          C86   1.388       .  A
C79          C87   1.387       .  A
C79          C90   1.421       .  A
C80          C88   1.385       .  A
C80          C91   1.418       .  A
C81          C82   1.376       .  A
C81          H93   1.082       .  S
C82          H94   1.082       .  S
C83          C84   1.374       .  A
C83          H95   1.082       .  S
C84          H96   1.082       .  S
C85          C86   1.376       .  A
C85          H97   1.082       .  S
C86          H98   1.082       .  S
C87          C88   1.378       .  A
C87          H99   1.082       .  S
C88         H100   1.082       .  S
C89        C1015   1.499       .  S
C90        C1023   1.504       .  S
C91        C1019   1.498       .  S
C92        C1028   1.502       .  S
N103        C108   1.358       .  A
N103        C107   1.356       .  A
N103        H135   1.040       .  S
N104        C111   1.355       .  A
N104        C112   1.357       .  A
N105        C110   1.355       .  A
N105        C109   1.357       .  A
N105        H136   1.040       .  S
N106        C113   1.358       .  A
N106        C114   1.356       .  A
C107        C115   1.388       .  A
C107        C123   1.419       .  A
C108        C124   1.420       .  A
C108        C116   1.388       .  A
C109        C117   1.388       .  A
C109        C126   1.419       .  A
C110        C125   1.419       .  A
C110        C118   1.388       .  A
C111        C123   1.423       .  A
C111        C119   1.387       .  A
C112        C126   1.421       .  A
C112        C120   1.384       .  A
C113        C121   1.384       .  A
C113        C124   1.422       .  A
C114        C122   1.387       .  A
C114        C125   1.425       .  A
C115        C116   1.373       .  A
C115        H127   1.082       .  S
C116        H128   1.082       .  S
C117        C118   1.373       .  A
C117        H129   1.082       .  S
C118        H130   1.082       .  S
C119        C120   1.378       .  A
C119        H131   1.082       .  S
C120        H132   1.082       .  S
C121        C122   1.378       .  A
C121        H133   1.082       .  S
C122        H134   1.082       .  S
C123       C1004   1.502       .  S
C124       C1011   1.509       .  S
C125        C999   1.503       .  S
C126       C1008   1.507       .  S
N137        C142   1.357       .  A
N137        C141   1.359       .  A
N137        H169   1.041       .  S
N138        C145   1.354       .  A
N138        C146   1.353       .  A
N139        C144   1.356       .  A
N139        C143   1.354       .  A
N139        H170   1.041       .  S
N140        C147   1.353       .  A
N140        C148   1.356       .  A
C141        C149   1.386       .  A
C141        C157   1.424       .  A
C142        C158   1.425       .  A
C142        C150   1.388       .  A
C143        C151   1.388       .  A
C143        C160   1.415       .  A
C144        C159   1.416       .  A
C144        C152   1.388       .  A
C145        C157   1.414       .  A
C145        C153   1.386       .  A
C146        C160   1.416       .  A
C146        C154   1.387       .  A
C147        C155   1.387       .  A
C147        C158   1.415       .  A
C148        C156   1.386       .  A
C148        C159   1.419       .  A
C149        C150   1.380       .  A
C149        H161   1.082       .  S
C150        H162   1.082       .  S
C151        C152   1.373       .  A
C151        H163   1.082       .  S
C152        H164   1.082       .  S
C153        C154   1.373       .  A
C153        H165   1.082       .  S
C154        H166   1.082       .  S
C155        C156   1.374       .  A
C155        H167   1.082       .  S
C156        H168   1.082       .  S
C157        C996   1.505       .  S
C158        C988   1.499       .  S
C159        C991   1.503       .  S
C160        C983   1.494       .  S
N171        C176   1.358       .  A
N171        C175   1.355       .  A
N171        H203   1.041       .  S
N172        C179   1.354       .  A
N172        C180   1.357       .  A
N173        C178   1.356       .  A
N173        C177   1.360       .  A
N173        H204   1.040       .  S
N174        C181   1.357       .  A
N174        C182   1.354       .  A
C175        C183   1.388       .  A
C175        C191   1.417       .  A
C176        C192   1.418       .  A
C176        C184   1.386       .  A
C177        C185   1.387       .  A
C177        C194   1.422       .  A
C178        C193   1.421       .  A
C178        C186   1.389       .  A
C179        C191   1.420       .  A
C179        C187   1.386       .  A
C180        C194   1.424       .  A
C180        C188   1.387       .  A
C181        C189   1.386       .  A
C181        C192   1.423       .  A
C182        C190   1.387       .  A
C182        C193   1.421       .  A
C183        C184   1.372       .  A
C183        H195   1.082       .  S
C184        H196   1.082       .  S
C185        C186   1.374       .  A
C185        H197   1.082       .  S
C186        H198   1.082       .  S
C187        C188   1.378       .  A
C187        H199   1.082       .  S
C188        H200   1.082       .  S
C189        C190   1.378       .  A
C189        H201   1.082       .  S
C190        H202   1.082       .  S
C191        C968   1.498       .  S
C192        C975   1.512       .  S
C193        C971   1.498       .  S
C194        C980   1.514       .  S
Zr205       O206   2.445       .  S
Zr205       O207   2.458       .  S
Zr205       O208   2.453       .  S
Zr205       O211   2.445       .  S
Zr205       O213   2.378       .  S
Zr205       O214   2.386       .  S
Zr205       O215   2.417       .  S
Zr205       O216   2.404       .  S
O206        H262   0.991       .  S
O206        H270   0.991       .  S
O207        C227   1.286       .  A
O208        C229   1.286       .  A
O209       Zr219   2.446       .  S
O209        C228   1.288       .  A
O210       Zr218   2.474       .  S
O210        C229   1.291       .  A
O211        C228   1.285       .  A
O212       Zr220   2.356       .  S
O212        C227   1.266       .  A
O213       Zr218   2.396       .  S
O213       Zr220   2.399       .  S
O214       Zr219   2.391       .  S
O214       Zr220   2.385       .  S
O214        H249   0.965       .  S
O215       Zr218   2.395       .  S
O215       Zr235   2.387       .  S
O215        H252   0.964       .  S
O216       Zr219   2.379       .  S
O216       Zr235   2.392       .  S
Zr217       O242   2.441   1_554  S
Zr217       O236   2.429       .  S
Zr217       O244   2.466   1_554  S
Zr217       O232   2.450   1_554  S
Zr217       O223   2.396       .  S
Zr217       O224   2.405       .  S
Zr217       O225   2.391       .  S
Zr217       O226   2.390       .  S
Zr218       O237   2.436       .  S
Zr218       O230   2.435       .  S
Zr218       O231   2.433       .  S
Zr218       O224   2.411       .  S
Zr218       O225   2.406       .  S
Zr219       O221   2.435       .  S
Zr219       O243   2.440       .  S
Zr219       O245   2.420       .  S
Zr219       O223   2.400       .  S
Zr219       O226   2.404       .  S
Zr220       O246   2.435       .  S
Zr220       O247   2.436       .  S
Zr220       O222   2.438       .  S
Zr220       O223   2.374       .  S
Zr220       O224   2.359       .  S
O221        H258   0.990       .  S
O222        H253   0.990       .  S
O222        H267   0.990       .  S
O224        H250   0.964       .  S
O225       Zr235   2.376       .  S
O226       Zr235   2.376       .  S
O226        H251   0.965       .  S
C227        C965   1.414       .  S
C228       C1020   1.484       .  S
C229        C979   1.494       .  S
O230        H266   0.990       .  S
O231        C233   1.285   1_554  A
O232        C233   1.286       .  A
C233        C962   1.435       .  S
O234       Zr235   2.439       .  S
O234        H263   0.990       .  S
Zr235       O238   2.438       .  S
Zr235       O239   2.439       .  S
Zr235       O240   2.420       .  S
O236        C241   1.280       .  A
O237        H254   0.990       .  S
O237        H269   0.990       .  S
O238        H255   0.990       .  S
O239        H259   0.990       .  S
O239        H268   0.990       .  S
O240        C241   1.282       .  A
C241       C1044   1.478   1_554  S
O242        H261   0.990       .  S
O242        H265   0.990       .  S
O243        H257   0.990       .  S
O243        H264   0.990       .  S
O244        C248   1.288       .  A
O245        C248   1.281   1_554  A
O246        H256   0.990       .  S
O247        H260   0.990   1_554  S
C248        C964   1.443       .  S
Zr271       O272   2.441   1_554  S
Zr271       O273   2.447   1_554  S
Zr271       O274   2.467   1_554  S
Zr271       O277   2.453   1_554  S
Zr271       O279   2.385       .  S
Zr271       O280   2.396       .  S
Zr271       O281   2.409       .  S
Zr271       O282   2.402       .  S
O272        H328   0.990       .  S
O272        H336   0.991       .  S
O273        C293   1.283   1_556  A
O274        C295   1.288       .  A
O275       Zr285   2.434       .  S
O275        C294   1.284       .  A
O276       Zr284   2.417       .  S
O276        C295   1.281   1_554  A
O277        C294   1.287   1_556  A
O278       Zr286   2.408       .  S
O278        C293   1.280       .  A
O279       Zr284   2.404       .  S
O279       Zr286   2.383       .  S
O280       Zr285   2.400       .  S
O280       Zr286   2.373       .  S
O280        H315   0.966       .  S
O281       Zr284   2.407       .  S
O281       Zr301   2.372       .  S
O281        H318   0.964       .  S
O282       Zr285   2.392       .  S
O282       Zr301   2.374       .  S
Zr283       O308   2.442       .  S
Zr283       O302   2.453       .  S
Zr283       O310   2.442       .  S
Zr283       O298   2.479       .  S
Zr283       O289   2.409       .  S
Zr283       O290   2.410       .  S
Zr283       O291   2.378       .  S
Zr283       O292   2.391       .  S
Zr284       O303   2.436       .  S
Zr284       O296   2.435       .  S
Zr284       O297   2.439       .  S
Zr284       O290   2.396       .  S
Zr284       O291   2.391       .  S
Zr285       O287   2.435       .  S
Zr285       O309   2.438       .  S
Zr285       O311   2.443       .  S
Zr285       O289   2.390       .  S
Zr285       O292   2.391       .  S
Zr286       O312   2.436       .  S
Zr286       O313   2.436       .  S
Zr286       O288   2.437       .  S
Zr286       O289   2.389       .  S
Zr286       O290   2.387       .  S
O287        H324   0.990       .  S
O288        H319   0.990       .  S
O288        H333   0.990       .  S
O290        H316   0.964       .  S
O291       Zr301   2.394       .  S
O292       Zr301   2.383       .  S
O292        H317   0.966       .  S
C293       C1036   1.479   1_554  S
C294        C955   1.443   1_554  S
C295        C957   1.435       .  S
O296        H332   0.990       .  S
O297        C299   1.285       .  A
O298        C299   1.291       .  A
C299        C995   1.493       .  S
O300       Zr301   2.439       .  S
O300        H329   0.990       .  S
Zr301       O304   2.437       .  S
Zr301       O305   2.441       .  S
Zr301       O306   2.370       .  S
O302        C307   1.285       .  A
O303        H320   0.990       .  S
O303        H335   0.990       .  S
O304        H321   0.990       .  S
O305        H325   0.990       .  S
O305        H334   0.989       .  S
O306        C307   1.269       .  A
C307        C960   1.419       .  S
O308        H327   0.990       .  S
O308        H331   0.990       .  S
O309        H323   0.990       .  S
O309        H330   0.990       .  S
O310        C314   1.285       .  A
O311        C314   1.288       .  A
O312        H322   0.990       .  S
O313        H326   0.990       .  S
C314        C972   1.485       .  S
Zr337       O338   2.445       .  S
Zr337       O339   2.459       .  S
Zr337       O340   2.444       .  S
Zr337       O343   2.429       .  S
Zr337       O345   2.378       .  S
Zr337       O346   2.379       .  S
Zr337       O347   2.414       .  S
Zr337       O348   2.405       .  S
O338        H394   0.990       .  S
O338        H402   0.991       .  S
O339        C359   1.287       .  A
O340        C361   1.283       .  A
O341       Zr351   2.435       .  S
O341        C360   1.285       .  A
O342       Zr350   2.479       .  S
O342        C361   1.292       .  A
O343        C360   1.282       .  A
O344       Zr352   2.360       .  S
O344        C359   1.267       .  A
O345       Zr350   2.402       .  S
O345       Zr352   2.397       .  S
O346       Zr351   2.383       .  S
O346       Zr352   2.385       .  S
O346        H381   0.965       .  S
O347       Zr350   2.394       .  S
O347       Zr367   2.389       .  S
O347        H384   0.964       .  S
O348       Zr351   2.379       .  S
O348       Zr367   2.396       .  S
Zr349       O374   2.443       .  S
Zr349       O368   2.438       .  S
Zr349       O376   2.456       .  S
Zr349       O364   2.456       .  S
Zr349       O355   2.392       .  S
Zr349       O356   2.411       .  S
Zr349       O357   2.393       .  S
Zr349       O358   2.391       .  S
Zr350       O369   2.435       .  S
Zr350       O362   2.435       .  S
Zr350       O363   2.437       .  S
Zr350       O356   2.415       .  S
Zr350       O357   2.410       .  S
Zr351       O353   2.435       .  S
Zr351       O375   2.440       .  S
Zr351       O377   2.401       .  S
Zr351       O355   2.392       .  S
Zr351       O358   2.399       .  S
Zr352       O378   2.436       .  S
Zr352       O379   2.435       .  S
Zr352       O354   2.436       .  S
Zr352       O355   2.371       .  S
Zr352       O356   2.361       .  S
O353        H390   0.990       .  S
O354        H385   0.990       .  S
O354        H399   0.990       .  S
O356        H382   0.963       .  S
O357       Zr367   2.379       .  S
O358       Zr367   2.376       .  S
O358        H383   0.966       .  S
C359        C951   1.415       .  S
C360        C984   1.473       .  S
C361        C976   1.493       .  S
O362        H398   0.990       .  S
O363        C365   1.285       .  A
O364        C365   1.286       .  A
C365        C950   1.437       .  S
O366       Zr367   2.440       .  S
O366        H395   0.990       .  S
Zr367       O370   2.437       .  S
Zr367       O371   2.440       .  S
Zr367       O372   2.422       .  S
O368        C373   1.282       .  A
O369        H386   0.990       .  S
O369        H401   0.990       .  S
O370        H387   0.990       .  S
O371        H391   0.990       .  S
O371        H400   0.990       .  S
O372        C373   1.282       .  A
C373       C1060   1.479       .  S
O374        H393   0.991       .  S
O374        H397   0.990       .  S
O375        H389   0.990       .  S
O375        H396   0.990       .  S
O376        C380   1.287       .  A
O377        C380   1.278       .  A
O378        H388   0.990       .  S
O379        H392   0.990       .  S
C380        C953   1.429       .  S
Zr403       O404   2.441       .  S
Zr403       O405   2.435       .  S
Zr403       O406   2.472       .  S
Zr403       O409   2.463       .  S
Zr403       O411   2.392       .  S
Zr403       O412   2.396       .  S
Zr403       O413   2.408       .  S
Zr403       O414   2.397       .  S
O404        H460   0.990       .  S
O404        H468   0.990       .  S
O405        C425   1.281       .  A
O406        C427   1.289       .  A
O407       Zr417   2.419       .  S
O407        C426   1.282       .  A
O408       Zr416   2.433       .  S
O408        C427   1.284       .  A
O409        C426   1.289       .  A
O410       Zr418   2.409       .  S
O410        C425   1.280       .  A
O411       Zr416   2.409       .  S
O411       Zr418   2.382       .  S
O412       Zr417   2.403       .  S
O412       Zr418   2.371       .  S
O412        H447   0.966       .  S
O413       Zr416   2.414       .  S
O413       Zr433   2.371       .  S
O413        H450   0.964       .  S
O414       Zr417   2.400       .  S
O414       Zr433   2.371       .  S
Zr415       O440   2.445       .  S
Zr415       O434   2.449       .  S
Zr415       O442   2.422       .  S
Zr415       O430   2.439       .  S
Zr415       O421   2.403       .  S
Zr415       O422   2.412       .  S
Zr415       O423   2.376       .  S
Zr415       O424   2.381       .  S
Zr416       O435   2.435       .  S
Zr416       O428   2.436       .  S
Zr416       O429   2.463       .  S
Zr416       O422   2.397       .  S
Zr416       O423   2.399       .  S
Zr417       O419   2.436       .  S
Zr417       O441   2.440       .  S
Zr417       O443   2.459       .  S
Zr417       O421   2.380       .  S
Zr417       O424   2.388       .  S
Zr418       O444   2.436       .  S
Zr418       O445   2.433       .  S
Zr418       O420   2.434       .  S
Zr418       O421   2.391       .  S
Zr418       O422   2.386       .  S
O419        H456   0.990       .  S
O420        H451   0.990       .  S
O420        H465   0.990       .  S
O422        H448   0.964       .  S
O423       Zr433   2.394       .  S
O424       Zr433   2.388       .  S
O424        H449   0.966       .  S
C425       C1056   1.478       .  S
C426        C947   1.439       .  S
C427        C946   1.445       .  S
O428        H464   0.990       .  S
O429        C431   1.290       .  A
O430        C431   1.282       .  A
C431       C1024   1.486       .  S
O432       Zr433   2.438       .  S
O432        H461   0.990       .  S
Zr433       O436   2.436       .  S
Zr433       O437   2.441       .  S
Zr433       O438   2.369       .  S
O434        C439   1.284       .  A
O435        H452   0.990       .  S
O435        H467   0.990       .  S
O436        H453   0.990       .  S
O437        H457   0.990       .  S
O437        H466   0.990       .  S
O438        C439   1.269       .  A
C439        C944   1.416       .  S
O440        H459   0.991       .  S
O440        H463   0.990       .  S
O441        H455   0.990       .  S
O441        H462   0.990       .  S
O442        C446   1.281       .  A
O443        C446   1.290       .  A
O444        H454   0.990       .  S
O445        H458   0.990       .  S
C446        C967   1.483       .  S
Zr469       O470   2.441       .  S
Zr469       O471   2.449       .  S
Zr469       O472   2.452       .  S
Zr469       O475   2.465       .  S
Zr469       O477   2.383       .  S
Zr469       O478   2.387       .  S
Zr469       O479   2.413       .  S
Zr469       O480   2.400       .  S
O470        H526   0.990       .  S
O470        H534   0.991       .  S
O471        C491   1.285       .  A
O472        C493   1.286       .  A
O473       Zr483   2.422       .  S
O473        C492   1.282       .  A
O474       Zr482   2.470       .  S
O474        C493   1.291       .  A
O475        C492   1.290       .  A
O476       Zr484   2.362       .  S
O476        C491   1.268       .  A
O477       Zr482   2.395       .  S
O477       Zr484   2.392       .  S
O478       Zr483   2.392       .  S
O478       Zr484   2.382       .  S
O478        H513   0.966       .  S
O479       Zr482   2.399       .  S
O479       Zr499   2.386       .  S
O479        H516   0.964       .  S
O480       Zr483   2.384       .  S
O480       Zr499   2.390       .  S
Zr481       O506   2.441   1_554  S
Zr481       O500   2.431   1_554  S
Zr481       O508   2.463   1_554  S
Zr481       O496   2.456   1_554  S
Zr481       O487   2.396       .  S
Zr481       O488   2.405       .  S
Zr481       O489   2.393       .  S
Zr481       O490   2.389       .  S
Zr482       O501   2.435       .  S
Zr482       O494   2.435       .  S
Zr482       O495   2.441       .  S
Zr482       O488   2.413       .  S
Zr482       O489   2.401       .  S
Zr483       O485   2.435       .  S
Zr483       O507   2.441       .  S
Zr483       O509   2.404       .  S
Zr483       O487   2.397       .  S
Zr483       O490   2.393       .  S
Zr484       O510   2.436       .  S
Zr484       O511   2.435       .  S
Zr484       O486   2.437       .  S
Zr484       O487   2.371       .  S
Zr484       O488   2.369       .  S
O485        H522   0.990       .  S
O486        H517   0.990       .  S
O486        H531   0.990       .  S
O488        H514   0.964       .  S
O489       Zr499   2.378       .  S
O490       Zr499   2.377       .  S
O490        H515   0.966       .  S
C491        C942   1.414       .  S
C492        C987   1.485       .  S
C493       C1012   1.495       .  S
O494        H530   0.990       .  S
O495        C497   1.286   1_554  A
O496        C497   1.287       .  A
C497        C937   1.443       .  S
O498       Zr499   2.440       .  S
O498        H527   0.990       .  S
Zr499       O502   2.437       .  S
Zr499       O503   2.440       .  S
Zr499       O504   2.405       .  S
O500        C505   1.280   1_556  A
O501        H518   0.990       .  S
O501        H533   0.990       .  S
O502        H519   0.990       .  S
O503        H523   0.990       .  S
O503        H532   0.990       .  S
O504        C505   1.281       .  A
C505       C1040   1.472   1_554  S
O506        H525   0.990       .  S
O506        H529   0.990       .  S
O507        H521   0.990       .  S
O507        H528   0.990       .  S
O508        C512   1.287       .  A
O509        C512   1.278   1_554  A
O510        H520   0.990       .  S
O511        H524   0.990   1_554  S
C512        C939   1.434       .  S
Zr535       O536   2.442       .  S
Zr535       O537   2.452       .  S
Zr535       O538   2.476       .  S
Zr535       O541   2.461       .  S
Zr535       O543   2.389       .  S
Zr535       O544   2.398       .  S
Zr535       O545   2.412       .  S
Zr535       O546   2.399       .  S
O536        H592   0.990       .  S
O536        H600   0.990       .  S
O537        C557   1.285       .  A
O538        C559   1.290       .  A
O539       Zr549   2.430       .  S
O539        C558   1.284       .  A
O540       Zr548   2.424       .  S
O540        C559   1.282       .  A
O541        C558   1.289       .  A
O542       Zr550   2.394       .  S
O542        C557   1.275       .  A
O543       Zr548   2.408       .  S
O543       Zr550   2.384       .  S
O544       Zr549   2.401       .  S
O544       Zr550   2.377       .  S
O544        H579   0.965       .  S
O545       Zr548   2.411       .  S
O545       Zr565   2.374       .  S
O545        H582   0.964       .  S
O546       Zr549   2.393       .  S
O546       Zr565   2.366       .  S
Zr547       O572   2.443       .  S
Zr547       O566   2.437       .  S
Zr547       O574   2.432       .  S
Zr547       O562   2.435       .  S
Zr547       O553   2.394       .  S
Zr547       O554   2.409       .  S
Zr547       O555   2.377       .  S
Zr547       O556   2.383       .  S
Zr548       O567   2.435       .  S
Zr548       O560   2.435       .  S
Zr548       O561   2.460       .  S
Zr548       O554   2.393       .  S
Zr548       O555   2.391       .  S
Zr549       O551   2.436       .  S
Zr549       O573   2.438       .  S
Zr549       O575   2.463       .  S
Zr549       O553   2.378       .  S
Zr549       O556   2.391       .  S
Zr550       O576   2.435       .  S
Zr550       O577   2.437       .  S
Zr550       O552   2.438       .  S
Zr550       O553   2.383       .  S
Zr550       O554   2.380       .  S
O551        H588   0.990       .  S
O552        H583   0.990       .  S
O552        H597   0.990       .  S
O554        H580   0.963       .  S
O555       Zr565   2.393       .  S
O556       Zr565   2.394       .  S
O556        H581   0.966       .  S
C557       C1047   1.465       .  S
C558        C933   1.438       .  S
C559        C931   1.442       .  S
O560        H596   0.990       .  S
O561        C563   1.289       .  A
O562        C563   1.282       .  A
C563        C992   1.481       .  S
O564       Zr565   2.441       .  S
O564        H593   0.990       .  S
Zr565       O568   2.438       .  S
Zr565       O569   2.442       .  S
Zr565       O570   2.368       .  S
O566        C571   1.282       .  A
O567        H584   0.990       .  S
O567        H599   0.990       .  S
O568        H585   0.990       .  S
O569        H589   0.990       .  S
O569        H598   0.990       .  S
O570        C571   1.269       .  A
C571        C935   1.411       .  S
O572        H591   0.991       .  S
O572        H595   0.990       .  S
O573        H587   0.990       .  S
O573        H594   0.990       .  S
O574        C578   1.282       .  A
O575        C578   1.290       .  A
O576        H586   0.990       .  S
O577        H590   0.990       .  S
C578       C1000   1.485       .  S
Zr601       O602   2.444       .  S
Zr601       O603   2.450       .  S
Zr601       O604   2.424       .  S
Zr601       O607   2.426       .  S
Zr601       O609   2.372       .  S
Zr601       O610   2.380       .  S
Zr601       O611   2.414       .  S
Zr601       O612   2.400       .  S
O602        H658   0.990       .  S
O602        H666   0.991       .  S
O603        C623   1.285       .  A
O604        C625   1.280       .  A
O605       Zr615   2.461       .  S
O605        C624   1.290       .  A
O606       Zr614   2.463       .  S
O606        C625   1.289       .  A
O607        C624   1.281       .  A
O608       Zr616   2.359       .  S
O608        C623   1.267       .  A
O609       Zr614   2.394       .  S
O609       Zr616   2.394       .  S
O610       Zr615   2.395       .  S
O610       Zr616   2.386       .  S
O610        H645   0.966       .  S
O611       Zr614   2.395       .  S
O611       Zr631   2.395       .  S
O611        H648   0.964       .  S
O612       Zr615   2.374       .  S
O612       Zr631   2.388       .  S
Zr613       O638   2.442   1_554  S
Zr613       O632   2.433   1_554  S
Zr613       O640   2.450   1_554  S
Zr613       O628   2.461   1_554  S
Zr613       O619   2.396       .  S
Zr613       O620   2.405       .  S
Zr613       O621   2.386       .  S
Zr613       O622   2.396       .  S
Zr614       O633   2.435       .  S
Zr614       O626   2.434       .  S
Zr614       O627   2.422       .  S
Zr614       O620   2.416       .  S
Zr614       O621   2.402       .  S
Zr615       O617   2.434       .  S
Zr615       O639   2.438       .  S
Zr615       O641   2.419       .  S
Zr615       O619   2.399       .  S
Zr615       O622   2.406       .  S
Zr616       O642   2.435       .  S
Zr616       O643   2.436       .  S
Zr616       O618   2.439       .  S
Zr616       O619   2.366       .  S
Zr616       O620   2.365       .  S
O617        H654   0.990       .  S
O618        H649   0.990       .  S
O618        H663   0.990       .  S
O620        H646   0.964       .  S
O621       Zr631   2.379       .  S
O622       Zr631   2.373       .  S
O622        H647   0.966       .  S
C623        C929   1.414       .  S
C624       C1003   1.483       .  S
C625       C1027   1.479       .  S
O626        H662   0.990       .  S
O627        C629   1.282   1_554  A
O628        C629   1.287       .  A
C629        C926   1.434       .  S
O630       Zr631   2.440       .  S
O630        H659   0.990       .  S
Zr631       O634   2.437       .  S
Zr631       O635   2.440       .  S
Zr631       O636   2.413       .  S
O632        C637   1.281   1_556  A
O633        H650   0.990       .  S
O633        H665   0.990       .  S
O634        H651   0.990       .  S
O635        H655   0.990       .  S
O635        H664   0.990       .  S
O636        C637   1.281       .  A
C637       C1032   1.473   1_554  S
O638        H657   0.991       .  S
O638        H661   0.990       .  S
O639        H653   0.990       .  S
O639        H660   0.990       .  S
O640        C644   1.286       .  A
O641        C644   1.282   1_554  A
O642        H652   0.990       .  S
O643        H656   0.990   1_554  S
C644        C928   1.433       .  S
Zr667       O668   2.442       .  S
Zr667       O669   2.440       .  S
Zr667       O670   2.457       .  S
Zr667       O673   2.459       .  S
Zr667       O675   2.391       .  S
Zr667       O676   2.393       .  S
Zr667       O677   2.411       .  S
Zr667       O678   2.393       .  S
O668        H724   0.990       .  S
O668        H732   0.991       .  S
O669        C689   1.282       .  A
O670        C691   1.286       .  A
O671       Zr681   2.408       .  S
O671        C690   1.279       .  A
O672       Zr680   2.435       .  S
O672        C691   1.284       .  A
O673        C690   1.288       .  A
O674       Zr682   2.418       .  S
O674        C689   1.281       .  A
O675       Zr680   2.407       .  S
O675       Zr682   2.381       .  S
O676       Zr681   2.395       .  S
O676       Zr682   2.375       .  S
O676        H711   0.967       .  S
O677       Zr680   2.413       .  S
O677       Zr697   2.370       .  S
O677        H714   0.964       .  S
O678       Zr681   2.394       .  S
O678       Zr697   2.371       .  S
Zr679       O704   2.441       .  S
Zr679       O698   2.450       .  S
Zr679       O706   2.451       .  S
Zr679       O694   2.445       .  S
Zr679       O685   2.407       .  S
Zr679       O686   2.413       .  S
Zr679       O687   2.383       .  S
Zr679       O688   2.381       .  S
Zr680       O699   2.435       .  S
Zr680       O692   2.436       .  S
Zr680       O693   2.467       .  S
Zr680       O686   2.394       .  S
Zr680       O687   2.395       .  S
Zr681       O683   2.437       .  S
Zr681       O705   2.437       .  S
Zr681       O707   2.429       .  S
Zr681       O685   2.389       .  S
Zr681       O688   2.386       .  S
Zr682       O708   2.436       .  S
Zr682       O709   2.436       .  S
Zr682       O684   2.437       .  S
Zr682       O685   2.403       .  S
Zr682       O686   2.386       .  S
O683        H720   0.990       .  S
O684        H715   0.991       .  S
O684        H729   0.990       .  S
O686        H712   0.964       .  S
O687       Zr697   2.390       .  S
O688       Zr697   2.389       .  S
O688        H713   0.966       .  S
C689       C1052   1.477       .  S
C690        C920   1.433       .  S
C691        C924   1.440       .  S
O692        H728   0.990       .  S
O693        C695   1.292       .  A
O694        C695   1.285       .  A
C695       C1007   1.493       .  S
O696       Zr697   2.442       .  S
O696        H725   0.990       .  S
Zr697       O700   2.439       .  S
Zr697       O701   2.440       .  S
Zr697       O702   2.364       .  S
O698        C703   1.285       .  A
O699        H716   0.990       .  S
O699        H731   0.990       .  S
O700        H717   0.990       .  S
O701        H721   0.990       .  S
O701        H730   0.990       .  S
O702        C703   1.268       .  A
C703        C922   1.414       .  S
O704        H723   0.990       .  S
O704        H727   0.991       .  S
O705        H719   0.990       .  S
O705        H726   0.990       .  S
O706        C710   1.286       .  A
O707        C710   1.282       .  A
O708        H718   0.990       .  S
O709        H722   0.990       .  S
C710       C1016   1.484       .  S
O733       Zr745   2.393       .  S
O733        C735   1.277       .  A
O734       Zr771   2.424   1_545  S
O734        C735   1.285       .  A
C735        C930   1.411       .  S
O736       Zr748   2.400       .  S
O736        C738   1.278       .  A
O737       Zr772   2.421   1_455  S
O737        C738   1.285       .  A
C738        C943   1.414       .  S
O739       Zr748   2.395       .  S
O739        C741   1.277       .  A
O740       Zr771   2.424   1_445  S
O740        C741   1.286       .  A
C741        C966   1.411       .  S
O742       Zr745   2.390       .  S
O742        C744   1.276       .  A
O743       Zr772   2.432       .  S
O743        C744   1.287       .  A
C744        C921   1.413       .  S
Zr745       O746   2.434       .  S
Zr745       O747   2.435       .  S
Zr745       O751   2.360       .  S
Zr745       O752   2.366       .  S
Zr745       O775   2.355   1_545  S
Zr745       O777   2.350   1_545  S
O746        H789   0.990       .  S
O747        H788   0.990       .  S
O747        H792   0.990   1_545  S
Zr748       O749   2.435       .  S
Zr748       O750   2.435       .  S
Zr748       O752   2.357   1_455  S
Zr748       O751   2.355   1_455  S
Zr748       O776   2.369       .  S
Zr748       O778   2.361       .  S
O749        H790   0.990       .  S
O749        H793   0.990   1_455  S
O750        H783   0.990       .  S
O751       Zr771   2.379   1_545  S
O752       Zr772   2.380       .  S
O752        H779   0.966       .  S
O753       Zr765   2.406       .  S
O753        C755   1.279       .  A
O754       Zr772   2.407   1_565  S
O754        C755   1.282       .  A
C755        C936   1.409       .  S
O756       Zr768   2.393       .  S
O756        C758   1.276       .  A
O757       Zr771   2.434   1_455  S
O757        C758   1.287       .  A
C758        C959   1.418       .  S
O759       Zr768   2.391       .  S
O759        C761   1.277       .  A
O760       Zr772   2.427   1_465  S
O760        C761   1.286       .  A
C761        C952   1.411       .  S
O762       Zr765   2.397       .  S
O762        C764   1.277       .  A
O763       Zr771   2.430       .  S
O763        C764   1.287       .  A
C764        C941   1.413       .  S
Zr765       O766   2.437       .  S
Zr765       O767   2.433       .  S
Zr765       O773   2.347   1_655  S
Zr765       O774   2.360   1_655  S
Zr765       O777   2.368       .  S
Zr765       O775   2.365       .  S
O766        H786   0.990       .  S
O766        H791   0.990       .  S
O767        H787   0.990       .  S
Zr768       O769   2.432       .  S
Zr768       O770   2.434       .  S
Zr768       O774   2.368       .  S
Zr768       O773   2.366       .  S
Zr768       O778   2.355   1_565  S
Zr768       O776   2.350   1_565  S
O769        H785   0.990       .  S
O770        H784   0.990       .  S
O770        H794   0.990       .  S
Zr771       O774   2.378   1_655  S
Zr771       O776   2.384   1_665  S
Zr771       O777   2.386       .  S
Zr772       O773   2.385   1_645  S
Zr772       O775   2.377   1_545  S
Zr772       O778   2.375   1_655  S
O773        H781   0.965       .  S
O776        H780   0.966       .  S
O777        H782   0.965       .  S
O795       Zr807   2.420       .  S
O795        C797   1.282       .  A
O796       Zr833   2.452   1_565  S
O796        C797   1.291       .  A
C797        C958   1.434       .  S
O798       Zr810   2.414       .  S
O798        C800   1.281       .  A
O799       Zr834   2.447   1_545  S
O799        C800   1.290       .  A
C800        C925   1.433       .  S
O801       Zr810   2.435       .  S
O801        C803   1.285       .  A
O802       Zr833   2.449       .  S
O802        C803   1.290       .  A
C803        C963   1.442       .  S
O804       Zr807   2.433       .  S
O804        C806   1.285       .  A
O805       Zr834   2.427       .  S
O805        C806   1.286       .  A
C806        C940   1.434       .  S
Zr807       O808   2.435       .  S
Zr807       O809   2.438       .  S
Zr807       O813   2.380       .  S
Zr807       O814   2.365       .  S
Zr807       O837   2.360       .  S
Zr807       O839   2.368       .  S
O808        H851   0.990       .  S
O809        H850   0.990       .  S
O809        H854   0.990       .  S
Zr810       O811   2.434       .  S
Zr810       O812   2.433       .  S
Zr810       O814   2.374   1_545  S
Zr810       O813   2.363   1_545  S
Zr810       O838   2.366       .  S
Zr810       O840   2.366       .  S
O811        H852   0.990   1_556  S
O811        H855   0.990       .  S
O812        H845   0.990       .  S
O813       Zr833   2.395   1_565  S
O814       Zr834   2.396       .  S
O814        H841   0.966       .  S
O815       Zr827   2.420       .  S
O815        C817   1.282       .  A
O816       Zr834   2.457       .  S
O816        C817   1.292       .  A
C817        C932   1.441       .  S
O818       Zr830   2.414       .  S
O818        C820   1.281       .  A
O819       Zr833   2.467       .  S
O819        C820   1.294       .  A
C820        C945   1.442       .  S
O821       Zr830   2.432       .  S
O821        C823   1.284       .  A
O822       Zr834   2.429   1_545  S
O822        C823   1.286       .  A
C823        C919   1.433       .  S
O824       Zr827   2.436       .  S
O824        C826   1.285       .  A
O825       Zr833   2.427   1_565  S
O825        C826   1.286       .  A
C826        C954   1.430       .  S
Zr827       O828   2.434       .  S
Zr827       O829   2.435       .  S
Zr827       O835   2.371   1_565  S
Zr827       O836   2.364   1_565  S
Zr827       O839   2.363       .  S
Zr827       O837   2.370       .  S
O828        H848   0.990       .  S
O828        H853   0.990       .  S
O829        H849   0.990       .  S
Zr830       O831   2.435       .  S
Zr830       O832   2.436       .  S
Zr830       O836   2.374       .  S
Zr830       O835   2.370       .  S
Zr830       O840   2.354       .  S
Zr830       O838   2.373       .  S
O831        H847   0.990       .  S
O832        H846   0.990       .  S
O832        H856   0.990       .  S
Zr833       O836   2.393       .  S
Zr833       O838   2.386       .  S
Zr833       O839   2.398   1_545  S
Zr834       O835   2.395   1_565  S
Zr834       O837   2.380       .  S
Zr834       O840   2.380   1_565  S
O835        H843   0.966       .  S
O838        H842   0.966       .  S
O839        H844   0.965       .  S
O857       Zr869   2.414       .  S
O857        C859   1.281       .  A
O858       Zr895   2.453       .  S
O858        C859   1.291       .  A
C859        C961   1.433       .  S
O860       Zr872   2.421       .  S
O860        C862   1.282       .  A
O861       Zr896   2.460       .  S
O861        C862   1.293       .  A
C862        C938   1.441       .  S
O863       Zr872   2.429       .  S
O863        C865   1.284       .  A
O864       Zr895   2.435   1_655  S
O864        C865   1.287       .  A
C865        C927   1.432       .  S
O866       Zr869   2.426       .  S
O866        C868   1.283       .  A
O867       Zr896   2.452   1_455  S
O867        C868   1.291       .  A
C868        C956   1.441       .  S
Zr869       O870   2.434       .  S
Zr869       O871   2.436       .  S
Zr869       O875   2.374       .  S
Zr869       O876   2.365       .  S
Zr869       O899   2.360       .  S
Zr869       O901   2.370       .  S
O870        H913   0.990       .  S
O871        H912   0.990       .  S
O871        H916   0.990       .  S
Zr872       O873   2.435       .  S
Zr872       O874   2.434       .  S
Zr872       O876   2.370   1_655  S
Zr872       O875   2.364   1_655  S
Zr872       O900   2.363       .  S
Zr872       O902   2.370       .  S
O873        H914   0.990       .  S
O873        H917   0.990   1_556  S
O874        H907   0.990       .  S
O875       Zr895   2.394       .  S
O876       Zr896   2.393   1_455  S
O876        H903   0.966       .  S
O877       Zr889   2.409       .  S
O877        C879   1.280       .  A
O878       Zr896   2.456   1_455  S
O878        C879   1.292       .  A
C879        C949   1.434       .  S
O880       Zr892   2.412       .  S
O880        C882   1.281       .  A
O881       Zr895   2.461   1_655  S
O881        C882   1.293       .  A
C882        C923   1.437       .  S
O883       Zr892   2.420       .  S
O883        C885   1.282       .  A
O884       Zr896   2.448       .  S
O884        C885   1.290       .  A
C885        C934   1.436       .  S
O886       Zr889   2.438       .  S
O886        C888   1.285       .  A
O887       Zr895   2.440       .  S
O887        C888   1.288       .  A
C888        C948   1.439       .  S
Zr889       O890   2.436       .  S
Zr889       O891   2.433       .  S
Zr889       O897   2.372   1_455  S
Zr889       O898   2.359   1_455  S
Zr889       O901   2.359       .  S
Zr889       O899   2.376       .  S
O890        H910   0.990       .  S
O890        H915   0.990       .  S
O891        H911   0.990       .  S
Zr892       O893   2.434       .  S
Zr892       O894   2.435       .  S
Zr892       O898   2.375       .  S
Zr892       O897   2.366       .  S
Zr892       O902   2.360       .  S
Zr892       O900   2.363       .  S
O893        H909   0.990       .  S
O894        H908   0.990       .  S
O894        H918   0.990       .  S
Zr895       O898   2.388   1_455  S
Zr895       O900   2.389   1_455  S
Zr895       O901   2.390       .  S
Zr896       O897   2.398       .  S
Zr896       O899   2.387   1_655  S
Zr896       O902   2.386       .  S
O897        H905   0.966       .  S
O900        H904   0.966       .  S
O901        H906   0.966       .  S
C919        C920   1.205       .  T
C921        C922   1.194       .  T
C923        C924   1.208       .  T
C925        C926   1.205       .  T
C927        C928   1.204       .  T
C929        C930   1.194       .  T
C931        C932   1.210       .  T
C933        C934   1.207       .  T
C935        C936   1.191       .  T
C937        C938   1.211       .  T
C939        C940   1.205       .  T
C941        C942   1.194       .  T
C943        C944   1.195       .  T
C945        C946   1.211       .  T
C947        C948   1.208       .  T
C949        C950   1.207       .  T
C951        C952   1.194       .  T
C953        C954   1.203       .  T
C955        C956   1.210       .  T
C957        C958   1.206       .  T
C959        C960   1.197       .  T
C961        C962   1.206       .  T
C963        C964   1.211       .  T
C965        C966   1.193       .  T
C967        C968   1.342       .  D
C967        H969   1.087       .  S
C968        H970   1.087       .  S
C971        C972   1.346       .  D
C971        H973   1.087       .  S
C972        H974   1.087       .  S
C975        C976   1.347       .  D
C975        H977   1.087       .  S
C976        H978   1.086       .  S
C979        C980   1.350       .  D
C979        H981   1.085       .  S
C980        H982   1.086       .  S
C983        C984   1.343       .  D
C983        H985   1.087       .  S
C984        H986   1.087       .  S
C987        C988   1.345       .  D
C987        H989   1.087       .  S
C988        H990   1.087       .  S
C991        C992   1.345       .  D
C991        H993   1.086       .  S
C992        H994   1.086       .  S
C995        C996   1.349       .  D
C995        H997   1.087       .  S
C996        H998   1.087       .  S
C999       C1000   1.344       .  D
C999       H1001   1.087       .  S
C1000      H1002   1.087       .  S
C1003      C1004   1.343       .  D
C1003      H1005   1.087       .  S
C1004      H1006   1.087       .  S
C1007      C1008   1.348       .  D
C1007      H1009   1.087       .  S
C1008      H1010   1.086       .  S
C1011      C1012   1.349       .  D
C1011      H1013   1.086       .  S
C1012      H1014   1.086       .  S
C1015      C1016   1.348       .  D
C1015      H1017   1.087       .  S
C1016      H1018   1.087       .  S
C1019      C1020   1.346       .  D
C1019      H1021   1.087       .  S
C1020      H1022   1.087       .  S
C1023      C1024   1.345       .  D
C1023      H1025   1.087       .  S
C1024      H1026   1.086       .  S
C1027      C1028   1.343       .  D
C1027      H1029   1.086       .  S
C1028      H1030   1.086       .  S
C1031      C1032   1.340       .  D
C1031      H1033   1.087   1_556  S
C1032      H1034   1.086       .  S
C1035      C1036   1.344       .  D
C1035      H1037   1.088   1_556  S
C1036      H1038   1.086       .  S
C1039      C1040   1.338       .  D
C1039      H1041   1.087   1_556  S
C1040      H1042   1.086       .  S
C1043      C1044   1.341   1_554  D
C1043      H1045   1.087       .  S
C1044      H1046   1.087       .  S
C1047      C1048   1.340       .  D
C1047      H1049   1.089       .  S
C1048      H1050   1.086       .  S
C1051      C1052   1.343       .  D
C1051      H1053   1.087       .  S
C1052      H1054   1.086       .  S
C1055      C1056   1.342       .  D
C1055      H1057   1.087       .  S
C1056      H1058   1.087       .  S
C1059      C1060   1.343       .  D
C1059      H1061   1.087       .  S
C1060      H1062   1.087       .  S
