geometry optimzed in LAMMPS
_audit_creation_date              2020-11-30 
_audit_creation_method            'lammps2cif' 
_symmetry_space_group_name_H-M    'P1' 
_symmetry_Int_Tables_number       1 
_symmetry_cell_setting            triclinic 
loop_ 
_symmetry_equiv_pos_as_xyz 
  x,y,z 
_cell_length_a                    40.00299063948799 
_cell_length_b                    41.094474461932755 
_cell_length_c                    41.291815306171095 
_cell_angle_alpha                 90.15050189345101 
_cell_angle_beta                  89.86008474917527 
_cell_angle_gamma                 89.70638957219307 
loop_ 
_atom_site_label 
_atom_site_type_symbol 
_atom_site_fract_x 
_atom_site_fract_y 
_atom_site_fract_z 
_atom_site_charge 
O1          O  0.50199049  0.56783444  0.56325533    -0.79910
O2          O  0.51559611  0.44401961  0.46963371    -0.64600
O3          O  0.52195447  0.52467028  0.51317001    -1.11210
C4          C  0.43000498  0.55230700  0.44464294     1.06970
O5          O  0.50753123  0.46684944  0.42225657    -0.77810
O6          O  0.49769229  0.52918605  0.41385629    -0.65390
Ni7        Ni  0.52553447  0.52679090  0.55941879     1.34870
C8          C  0.51515182  0.55104347  0.42730627     0.85710
O9          O  0.55784822  0.46791735  0.51204949    -0.78350
O10         O  0.54867087  0.48514835  0.56244732    -0.88630
C11         C  0.52427032  0.44796234  0.44034363     0.85280
O12         O  0.48383873  0.50607092  0.56337819    -0.66830
O13         O  0.43236658  0.52470897  0.43056675    -0.86120
C14         C  0.47830387  0.47689971  0.55531783     0.86110
C15         C  0.56125373  0.46503571  0.54221971     1.07680
H16         H  0.45920418  0.49106250  0.48503874     0.39480
O17         O  0.47825057  0.50044332  0.47415527    -1.08770
O18         O  0.51364601  0.55785181  0.45752971    -0.65430
Ni19       Ni  0.48382231  0.54253889  0.49153125     1.26350
O20         O  0.49081444  0.46406487  0.52934340    -0.65650
O21         O  0.44774501  0.56095688  0.46847391    -0.77950
C22         C  0.48106236  0.58015815  0.54372664     0.85500
O23         O  0.48783145  0.58196387  0.51379287    -0.65120
Ni24       Ni  0.46974135  0.49505485  0.42884780     1.27450
Ni25       Ni  0.51779320  0.48327415  0.49349765     1.26060
H26         H  0.54198573  0.53459288  0.50468984     0.40040
O27         O  0.49013778  0.19739079  0.16939448    -0.79910
O28         O  0.52550048  0.32542884  0.24617795    -0.64600
O29         O  0.52207789  0.23937999  0.21437957    -1.11210
C30         C  0.44048795  0.22029434  0.29058175     1.06970
O31         O  0.51399166  0.31594240  0.29774356    -0.77810
O32         O  0.52132001  0.25393645  0.30523804    -0.65390
Ni33       Ni  0.52204847  0.23282255  0.16808520     1.34870
C34         C  0.52606660  0.22463364  0.29716071     0.85710
O35         O  0.56347994  0.29046712  0.20727629    -0.78350
O36         O  0.55100638  0.27010586  0.15918822    -0.88630
C37         C  0.53178296  0.32906151  0.27585183     0.85280
O38         O  0.48449803  0.25972489  0.16226871    -0.66830
O39         O  0.45464046  0.24219490  0.30766282    -0.86120
C40         C  0.48247324  0.28970551  0.16847012     0.86110
C41         C  0.56472217  0.29181213  0.17685403     1.07680
H42         H  0.46446887  0.28450111  0.24321031     0.39480
O43         O  0.48329068  0.27301780  0.25245163    -1.08770
O44         O  0.51033404  0.21122694  0.27362254    -0.65430
Ni45       Ni  0.48279204  0.22895805  0.23800054     1.26350
O46         O  0.49701794  0.30221338  0.19318084    -0.65650
O47         O  0.44290500  0.21976152  0.26017713    -0.77950
C48         C  0.47313237  0.18423155  0.19189594     0.85500
O49         O  0.48194338  0.18647467  0.22106754    -0.65120
Ni50       Ni  0.48304255  0.27977497  0.29878191     1.27450
Ni51       Ni  0.52317909  0.28298194  0.22921545     1.26060
H52         H  0.54105060  0.22778953  0.22320639     0.40040
C53         C  0.82867118  0.80482085  0.81865185     0.04110
C54         C  0.84267773  0.81803604  0.79020220    -0.12040
C55         C  0.82886097  0.84591378  0.77547499     0.01610
C56         C  0.80016019  0.86009942  0.78890826    -0.10570
C57         C  0.78578337  0.84791698  0.81737714     0.04100
C58         C  0.79997432  0.82000185  0.83202617    -0.09990
H59         H  0.86525996  0.80736619  0.78018237     0.09690
H60         H  0.78984707  0.88183255  0.77791220     0.07220
H61         H  0.78952899  0.81092459  0.85445182     0.07070
C62         C  0.79195851  0.94177178  0.91401754     0.04110
C63         C  0.80436672  0.92637575  0.94208290    -0.12040
C64         C  0.83239721  0.93881584  0.95863902     0.01610
C65         C  0.84770070  0.96721092  0.94692932    -0.10570
C66         C  0.83576972  0.98293378  0.91906082     0.04100
C67         C  0.80772267  0.97020657  0.90301409    -0.09990
H68         H  0.79278252  0.90418783  0.95052072     0.09690
H69         H  0.86961081  0.97664651  0.95903924     0.07220
H70         H  0.79875599  0.98193410  0.88121791     0.07070
C71         C  0.92612418  0.84312049  0.95864030     0.04110
C72         C  0.95496306  0.85721147  0.94512894    -0.12040
C73         C  0.96917546  0.84458508  0.91652932     0.01610
C74         C  0.95461187  0.81732221  0.90181425    -0.10570
C75         C  0.92578638  0.80312205  0.91472590     0.04100
C76         C  0.91191646  0.81591385  0.94335857    -0.09990
H77         H  0.96565354  0.87867983  0.95620662     0.09690
H78         H  0.96507210  0.80777540  0.87949175     0.07220
H79         H  0.88930730  0.80535296  0.95315245     0.07070
C80         C  0.92901381  0.98300478  0.82376266     0.04110
C81         C  0.95797037  0.96803943  0.83614432    -0.12040
C82         C  0.97087963  0.93923729  0.82270812     0.01610
C83         C  0.95519460  0.92573509  0.79547673    -0.10570
C84         C  0.92635236  0.94011645  0.78207204     0.04100
C85         C  0.91335749  0.96893390  0.79643944    -0.09990
H86         H  0.96993922  0.97820951  0.85734719     0.09690
H87         H  0.96497232  0.90332571  0.78524847     0.07220
H88         H  0.89070784  0.97983130  0.78698015     0.07070
O89         O  0.00953167  0.88724999  0.91222936    -0.73450
O90         O  0.07873707  0.93148446  0.86609794    -0.73480
O91         O  0.01041611  0.93331321  0.86567640    -0.73530
O92         O  0.07800031  0.88632263  0.91171297    -0.73580
O93         O  0.07679359  0.84758562  0.87391919    -0.73520
O94         O  0.01022626  0.89522089  0.82719699    -0.73490
O95         O  0.07877599  0.89241288  0.82836085    -0.73470
O96         O  0.00873260  0.84925713  0.87365615    -0.73530
Ni97       Ni  0.04395283  0.91099336  0.89028964     1.25410
Ni98       Ni  0.04336196  0.86977374  0.84942124     1.25360
C99         C  0.99740346  0.86105261  0.90027286     0.88730
C100        C  0.09185883  0.91755579  0.84136334     0.88660
C101        C  0.99881341  0.92192847  0.83905428     0.88690
C102        C  0.09049843  0.86065701  0.89872993     0.88860
O103        O  0.87446112  0.93166649  0.99939411    -0.73450
O104        O  0.91794013  0.88220056  0.06593819    -0.73480
O105        O  0.92125309  0.88422636  0.99952118    -0.73530
O106        O  0.87234359  0.92905346  0.06577141    -0.73580
O107        O  0.83213175  0.89198352  0.06299402    -0.73520
O108        O  0.88107113  0.84701900  0.99669191    -0.73490
O109        O  0.87775798  0.84511990  0.06308856    -0.73470
O110        O  0.83426837  0.89450422  0.99647856    -0.73530
Ni111      Ni  0.89793647  0.90809918  0.03256089     1.25410
Ni112      Ni  0.85490370  0.86833235  0.02951982     1.25360
C113        C  0.84751678  0.92097398  0.98641962     0.88730
C114        C  0.90330153  0.85704462  0.07743636     0.88660
C115        C  0.90890638  0.85861108  0.98659558     0.88690
C116        C  0.84559115  0.91641835  0.07711749     0.88860
O117        O  0.87378154  0.85049493  0.73771748    -0.73450
O118        O  0.92593663  0.89843361  0.67763090    -0.73480
O119        O  0.92124543  0.89672350  0.74319621    -0.73530
O120        O  0.87839659  0.85412892  0.67131357    -0.73580
O121        O  0.83928898  0.89274973  0.67111390    -0.73520
O122        O  0.88310520  0.93632207  0.74167549    -0.73490
O123        O  0.88692370  0.93731769  0.67525429    -0.73470
O124        O  0.83532435  0.88986276  0.73772210    -0.73530
Ni125      Ni  0.90109458  0.87351768  0.70765617     1.25410
Ni126      Ni  0.85966383  0.91540362  0.70660572     1.25360
C127        C  0.84650582  0.86262696  0.74861273     0.88730
C128        C  0.91432837  0.92451797  0.66513918     0.88660
C129        C  0.90942638  0.92373106  0.75422922     0.88690
C130        C  0.85325134  0.86800750  0.65770232     0.88860
O131        O  0.92117164  0.76616823  0.87015488    -0.73450
O132        O  0.87611347  0.69902003  0.82356957    -0.73480
O133        O  0.87348587  0.76596138  0.82371020    -0.73530
O134        O  0.92305313  0.69953702  0.86849682    -0.73580
O135        O  0.88355833  0.69823225  0.90644593    -0.73520
O136        O  0.83408207  0.76536699  0.86183301    -0.73490
O137        O  0.83655007  0.69838006  0.86150236    -0.73470
O138        O  0.88175857  0.76479932  0.90831833    -0.73530
Ni139      Ni  0.89977086  0.73299923  0.84506481     1.25410
Ni140      Ni  0.85752982  0.73187532  0.88582138     1.25360
C141        C  0.90891489  0.77656705  0.89700679     0.88730
C142        C  0.85110031  0.68523634  0.83711430     0.88660
C143        C  0.84598382  0.77717296  0.83545434     0.88690
C144        C  0.91030552  0.68631218  0.89369934     0.88860
O145        O  0.75032733  0.89484780  0.82156647    -0.73450
O146        O  0.68647514  0.94930809  0.86533832    -0.73480
O147        O  0.75443912  0.94086143  0.86858162    -0.73530
O148        O  0.68208122  0.90448932  0.81929855    -0.73580
O149        O  0.67614537  0.86624367  0.85693457    -0.73520
O150        O  0.74904982  0.90191153  0.90558326    -0.73490
O151        O  0.68175002  0.91075831  0.90297128    -0.73470
O152        O  0.74429141  0.85611094  0.85870207    -0.73530
Ni153      Ni  0.71884827  0.92365005  0.84225966     1.25410
Ni154      Ni  0.71272953  0.88232157  0.88226393     1.25360
C155        C  0.75847913  0.86691490  0.83313203     0.88730
C156        C  0.67242321  0.93791168  0.89071194     0.88660
C157        C  0.76369771  0.92755294  0.89524449     0.88690
C158        C  0.66512164  0.88138150  0.83195658     0.88860
O159        O  0.84184574  0.02607316  0.88079725    -0.73450
O160        O  0.89300616  0.09181827  0.83866280    -0.73480
O161        O  0.88743152  0.02536998  0.83240913    -0.73530
O162        O  0.84843786  0.09244993  0.88657413    -0.73580
O163        O  0.88844305  0.08463093  0.92324552    -0.73520
O164        O  0.92848919  0.02024286  0.86832458    -0.73490
O165        O  0.93317334  0.08646319  0.87543584    -0.73470
O166        O  0.88286852  0.01873204  0.91645528    -0.73530
Ni167      Ni  0.86621169  0.05907590  0.85831436     1.25410
Ni168      Ni  0.90970590  0.05214565  0.89706978     1.25360
C169        C  0.85420671  0.01086134  0.90505313     0.88730
C170        C  0.92027896  0.10168146  0.85141424     0.88660
C171        C  0.91432831  0.01120598  0.84196484     0.88690
C172        C  0.86296550  0.10050373  0.91310577     0.88860
O173        O  0.24322227  0.43216485  0.29053421    -0.79910
O174        O  0.26290669  0.53380066  0.18060676    -0.64600
O175        O  0.27260334  0.48649937  0.25843474    -1.11210
C176        C  0.18417925  0.55045466  0.29599083     1.06970
O177        O  0.25341625  0.58121270  0.20363473    -0.77810
O178        O  0.25468445  0.58273050  0.26640806    -0.65390
Ni179      Ni  0.27833772  0.43999955  0.25898444     1.34870
C180        C  0.26550629  0.56830789  0.29123902     0.85710
O181        O  0.30642165  0.48974823  0.19954094    -0.78350
O182        O  0.31155397  0.44154152  0.22486738    -0.88630
C183        C  0.27010037  0.56347313  0.18410752     0.85280
O184        O  0.24531686  0.43100569  0.22798025    -0.66830
O185        O  0.18970537  0.57121990  0.27361326    -0.86120
C186        C  0.23261218  0.44666811  0.20474688     0.86110
C187        C  0.31800482  0.46101421  0.20156778     1.07680
H188        H  0.20887411  0.51752811  0.22672265     0.39480
O189        O  0.22814203  0.52671822  0.23735734    -1.08770
O190        O  0.25898987  0.53863774  0.29828208    -0.65430
Ni191      Ni  0.23298379  0.50434385  0.27705120     1.26350
O192        O  0.24009457  0.47588321  0.19759983    -0.65650
O193        O  0.19320431  0.52108360  0.29451091    -0.77950
C194        C  0.22757489  0.45007067  0.31066098     0.85500
O195        O  0.23687874  0.47906571  0.31488888    -0.65120
Ni196      Ni  0.22053653  0.57289718  0.23711420     1.27450
Ni197      Ni  0.26760732  0.50858676  0.21831911     1.26060
H198        H  0.29179477  0.49560732  0.26927683     0.40040
O199        O  0.18252398  0.27578496  0.54984794    -0.79910
O200        O  0.27143802  0.23593452  0.42732914    -0.64600
O201        O  0.23157340  0.24557402  0.51034320    -1.11210
C202        C  0.31091154  0.32277485  0.53157776     1.06970
O203        O  0.32376353  0.24751994  0.43991854    -0.77810
O204        O  0.32354859  0.24132576  0.50246997    -0.65390
Ni205      Ni  0.18361031  0.24744918  0.51265111     1.34870
C206        C  0.31306656  0.23944703  0.53129721     0.85710
O207        O  0.22580797  0.20315131  0.45888012    -0.78350
O208        O  0.17619385  0.22126167  0.47408433    -0.88630
C209        C  0.30234324  0.22935130  0.42624648     0.85280
O210        O  0.18393554  0.28540512  0.48744254    -0.66830
O211        O  0.32972892  0.30618798  0.51279788    -0.86120
C212        C  0.19429025  0.28777003  0.45859430     0.86110
C213        C  0.19454425  0.20453104  0.45507678     1.07680
H214        H  0.26747551  0.29756369  0.46479019     0.39480
O215        O  0.27488708  0.27964775  0.47811879    -1.08770
O216        O  0.28957035  0.25772657  0.54243144    -0.65430
Ni217      Ni  0.25573173  0.28448372  0.52005341     1.26350
O218        O  0.21695772  0.26903593  0.44672520    -0.65650
O219        O  0.27959412  0.32314355  0.52815170    -0.77950
C220        C  0.20308932  0.29544092  0.56266593     0.85500
O221        O  0.23436870  0.29095010  0.56060179    -0.65120
Ni222      Ni  0.32276869  0.27800112  0.47551246     1.27450
Ni223      Ni  0.25037693  0.24125750  0.46805230     1.26060
H224        H  0.23922493  0.22773161  0.52365539     0.40040
O225        O  0.49731283  0.71448299  0.67455581    -0.79910
O226        O  0.53032656  0.84159001  0.75628876    -0.64600
O227        O  0.52649141  0.75586741  0.72188929    -1.11210
C228        C  0.44399219  0.73406231  0.79494109     1.06970
O229        O  0.51392522  0.83164075  0.80650989    -0.77810
O230        O  0.52562626  0.76962227  0.80835070    -0.65390
Ni231      Ni  0.52836188  0.75036781  0.67556910     1.34870
C232        C  0.52804069  0.73951063  0.80304404     0.85710
O233        O  0.56869635  0.80835920  0.71687453    -0.78350
O234        O  0.55727984  0.78767839  0.66854677    -0.88630
C235        C  0.53343012  0.84560549  0.78652779     0.85280
O236        O  0.49058543  0.77692596  0.66948112    -0.66830
O237        O  0.45928647  0.75421143  0.81313893    -0.86120
C238        C  0.48581740  0.80594043  0.67864295     0.86110
C239        C  0.57153679  0.80875039  0.68644194     1.07680
H240        H  0.46844274  0.80122528  0.75051410     0.39480
O241        O  0.48689135  0.78903605  0.75956775    -1.08770
O242        O  0.51185212  0.72606101  0.77974000    -0.65430
Ni243      Ni  0.48577921  0.74549985  0.74360728     1.26350
O244        O  0.50168553  0.81875464  0.70238776    -0.65650
O245        O  0.44481840  0.73672243  0.76457777    -0.77950
C246        C  0.47777938  0.70139302  0.69502429     0.85500
O247        O  0.48338734  0.70353928  0.72506399    -0.65120
Ni248      Ni  0.48569958  0.79357576  0.80579019     1.27450
Ni249      Ni  0.52780872  0.79938172  0.73794747     1.26060
H250        H  0.54484282  0.74371849  0.73117978     0.40040
O251        O  0.24623358  0.83885518  0.93880390    -0.79910
O252        O  0.27072136  0.74060106  0.05645646    -0.64600
O253        O  0.27226826  0.78636429  0.97681534    -1.11210
C254        C  0.19253346  0.71412515  0.94210021     1.06970
O255        O  0.26049113  0.69139661  0.03728078    -0.77810
O256        O  0.26956603  0.69309938  0.97503581    -0.65390
Ni257      Ni  0.27219549  0.83331965  0.97783081     1.34870
C258        C  0.27594529  0.70667949  0.94832723     0.85710
O259        O  0.30974350  0.78562897  0.03222616    -0.78350
O260        O  0.29600957  0.83583823  0.01851751    -0.88630
C261        C  0.27739173  0.71056482  0.05480734     0.85280
O262        O  0.23117009  0.83366294  0.00033742    -0.66830
O263        O  0.20385211  0.69394136  0.96264367    -0.86120
C264        C  0.22520305  0.82101647  0.02764412     0.86110
C265        C  0.30953300  0.81576737  0.03795396     1.07680
H266        H  0.21263028  0.75065322  0.01297096     0.39480
O267        O  0.23218310  0.74326334  0.00124552    -1.08770
O268        O  0.26188436  0.73304835  0.93891040    -0.65430
Ni269      Ni  0.23336662  0.76525343  0.96080561     1.26350
O270        O  0.24169186  0.79663089  0.03869139    -0.65650
O271        O  0.19468728  0.74453388  0.94558250    -0.77950
C272        C  0.22649547  0.81953543  0.92447484     0.85500
O273        O  0.23371658  0.78967728  0.92236019    -0.65120
Ni274      Ni  0.23099033  0.69646404  0.00104805     1.27450
Ni275      Ni  0.27098763  0.76452086  0.01739867     1.26060
H276        H  0.29184532  0.77920448  0.96497612     0.40040
O277        O  0.01301370  0.44642826  0.93368935    -0.79910
O278        O  0.98325889  0.53092200  0.05832555    -0.64600
O279        O  0.98239206  0.49393561  0.97482812    -1.11210
C280        C  0.06166998  0.57002535  0.94824331     1.06970
O281        O  0.98986342  0.58230739  0.04463590    -0.77810
O282        O  0.98207243  0.58710328  0.98268789    -0.65390
Ni283      Ni  0.98322789  0.44695651  0.97093168     1.34870
C284        C  0.97708143  0.57732931  0.95411881     0.85710
O285        O  0.94420544  0.48910919  0.02871070    -0.78350
O286        O  0.95649612  0.43995341  0.01009359    -0.88630
C287        C  0.97353828  0.56009937  0.05900719     0.85280
O288        O  0.02238084  0.44221478  0.99567793    -0.66830
O289        O  0.04840416  0.58869322  0.96956963    -0.86120
C290        C  0.02730615  0.45170788  0.02437077     0.86110
C291        C  0.94321567  0.45867352  0.03131731     1.07680
H292        H  0.04110097  0.52682038  0.01497797     0.39480
O293        O  0.02145356  0.53492598  0.00399359    -1.08770
O294        O  0.99219482  0.55228649  0.94227017    -0.65430
Ni295      Ni  0.02067515  0.51762593  0.96147114     1.26350
O296        O  0.01197247  0.47657339  0.03637280    -0.65650
O297        O  0.05975852  0.53955189  0.95002786    -0.77950
C298        C  0.02986361  0.46853471  0.91975005     0.85500
O299        O  0.02060977  0.49784899  0.92054364    -0.65120
Ni300      Ni  0.02065170  0.58183981  0.00811992     1.27450
Ni301      Ni  0.98323495  0.51118687  0.01735162     1.26060
H302        H  0.96275250  0.50204111  0.96383616     0.40040
O303        O  0.23943109  0.94224752  0.78865423    -0.79910
O304        O  0.28840520  0.04015508  0.68118506    -0.64600
O305        O  0.27560579  0.99254595  0.75812801    -1.11210
C306        C  0.20071293  0.07064218  0.78988275     1.06970
O307        O  0.27336664  0.09002852  0.69619685    -0.77810
O308        O  0.28376177  0.08106397  0.75785347    -0.65390
Ni309      Ni  0.27359049  0.94584270  0.75601483     1.34870
C310        C  0.28493274  0.06940550  0.78610345     0.85710
O311        O  0.32098781  0.99226472  0.70854790    -0.78350
O312        O  0.30536847  0.94218100  0.72044194    -0.88630
C313        C  0.29363529  0.07040358  0.68259341     0.85280
O314        O  0.23811526  0.94707693  0.72645379    -0.66830
O315        O  0.21814705  0.09005381  0.77296266    -0.86120
C316        C  0.23776581  0.96028248  0.69890852     0.86110
C317        C  0.32198082  0.96209705  0.70320376     1.07680
H318        H  0.22352148  0.03335537  0.71622667     0.39480
O319        O  0.24176561  0.03901415  0.73043152    -1.08770
O320        O  0.26569544  0.04633183  0.79549961    -0.65430
Ni321      Ni  0.23676771  0.01672098  0.77042342     1.26350
O322        O  0.25515206  0.98538046  0.69186885    -0.65650
O323        O  0.19839067  0.04119056  0.78191419    -0.77950
C324        C  0.22219826  0.96224667  0.80524962     0.85500
O325        O  0.23023033  0.99186285  0.80814437    -0.65120
Ni326      Ni  0.24457398  0.08581976  0.73337386     1.27450
Ni327      Ni  0.28145716  0.01538578  0.71873955     1.26060
H328        H  0.29395147  0.99795292  0.77230020     0.40040
O329        O  0.67977762  0.78280854  0.54212519    -0.79910
O330        O  0.77248969  0.73879716  0.42371560    -0.64600
O331        O  0.72989944  0.74881586  0.50573747    -1.11210
C332        C  0.80967576  0.82501124  0.53008787     1.06970
O333        O  0.82441031  0.74841420  0.43830145    -0.77810
O334        O  0.81434340  0.74160082  0.49941490    -0.65390
Ni335      Ni  0.68212723  0.75314947  0.50572164     1.34870
C336        C  0.81106303  0.74480106  0.52938301     0.85710
O337        O  0.72593058  0.70599205  0.45395211    -0.78350
O338        O  0.67602885  0.72532308  0.46716068    -0.88630
C339        C  0.80283619  0.73032767  0.42483349     0.85280
O340        O  0.69046758  0.79076173  0.48133324    -0.66830
O341        O  0.82815521  0.80720980  0.51188662    -0.86120
C342        C  0.69303873  0.78791248  0.45129876     0.86110
C343        C  0.69474317  0.70743798  0.44919284     1.07680
H344        H  0.76755857  0.80116673  0.46064256     0.39480
O345        O  0.77414182  0.78322146  0.47425677    -1.08770
O346        O  0.78736292  0.76220874  0.54079197    -0.65430
Ni347      Ni  0.75399611  0.78763681  0.51651501     1.26350
O348        O  0.71637319  0.77029218  0.43933626    -0.65650
O349        O  0.77827753  0.82618337  0.52618797    -0.77950
C350        C  0.70099065  0.80039028  0.55684127     0.85500
O351        O  0.73170303  0.79315635  0.55647781    -0.65120
Ni352      Ni  0.82199568  0.77877506  0.47406687     1.27450
Ni353      Ni  0.74995715  0.74450998  0.46348647     1.26060
H354        H  0.73653667  0.73080995  0.51937916     0.40040
O355        O  0.00714197  0.82333800  0.30404063    -0.79910
O356        O  0.97255180  0.73689406  0.17888581    -0.64600
O357        O  0.97737426  0.77534022  0.26287062    -1.11210
C358        C  0.05674343  0.70043070  0.28819149     1.06970
O359        O  0.98731604  0.68632227  0.19088656    -0.77810
O360        O  0.97430479  0.69078833  0.25191630    -0.65390
Ni361      Ni  0.97941666  0.82190531  0.26563478     1.34870
C362        C  0.97364570  0.69499921  0.28200061     0.85710
O363        O  0.93639065  0.78062704  0.20972408    -0.78350
O364        O  0.95393618  0.82891296  0.22574011    -0.88630
C365        C  0.96721854  0.70650534  0.17786309     0.85280
O366        O  0.01995732  0.81786606  0.24310726    -0.66830
O367        O  0.04048529  0.68155937  0.26939197    -0.86120
C368        C  0.02104112  0.81465766  0.21292644     0.86110
C369        C  0.93771826  0.81104078  0.20596335     1.07680
H370        H  0.03484257  0.74244406  0.21874081     0.39480
O371        O  0.01593969  0.73473811  0.23118429    -1.08770
O372        O  0.99049463  0.71798260  0.29509788    -0.65430
Ni373      Ni  0.01742583  0.75254929  0.27390356     1.26350
O374        O  0.00376609  0.79232541  0.19904082    -0.65650
O375        O  0.05765028  0.73052757  0.28296875    -0.77950
C376        C  0.02624466  0.80245817  0.31725765     0.85500
O377        O  0.02073755  0.77232428  0.31500095    -0.65120
Ni378      Ni  0.01486075  0.68804364  0.22923541     1.27450
Ni379      Ni  0.97606697  0.75773197  0.21975750     1.26060
H380        H  0.95859172  0.76759016  0.27526703     0.40040
O381        O  0.56802810  0.98599978  0.04292271    -0.79910
O382        O  0.47559172  0.03841462  0.92836911    -0.64600
O383        O  0.51876938  0.02475641  0.00980805    -1.11210
C384        C  0.43831744  0.95004227  0.03339943     1.06970
O385        O  0.42364638  0.02844821  0.94368524    -0.77810
O386        O  0.43374443  0.03375566  0.00475343    -0.65390
Ni387      Ni  0.56622237  0.01812534  0.00871471     1.34870
C388        C  0.43765672  0.02992286  0.03456078     0.85710
O389        O  0.52320766  0.06894671  0.95951297    -0.78350
O390        O  0.57259563  0.04780972  0.97165957    -0.88630
C391        C  0.44494689  0.04600910  0.92906169     0.85280
O392        O  0.55367128  0.98253456  0.98321613    -0.66830
O393        O  0.41958349  0.96820573  0.01595734    -0.86120
C394        C  0.55342017  0.98648803  0.95342143     0.86110
C395        C  0.55433682  0.06678679  0.95447402     1.07680
H396        H  0.47971035  0.97452855  0.96331180     0.39480
O397        O  0.47356278  0.99222342  0.97759797    -1.08770
O398        O  0.46119306  0.01178598  0.04497084    -0.65430
Ni399      Ni  0.49386365  0.98627906  0.01946365     1.26350
O400        O  0.53126716  0.00537368  0.94163293    -0.65650
O401        O  0.46927305  0.94792010  0.02765679    -0.77950
C402        C  0.54607047  0.96992802  0.05826562     0.85500
O403        O  0.51597631  0.97906313  0.05914675    -0.65120
Ni404      Ni  0.42579374  0.99720647  0.97852407     1.27450
Ni405      Ni  0.49835998  0.03075824  0.96774141     1.26060
H406        H  0.51299035  0.04248301  0.02419995     0.40040
C407        C  0.31749655  0.79771795  0.32565090     0.04110
C408        C  0.33209540  0.81272911  0.29863354    -0.12040
C409        C  0.31908102  0.84202449  0.28622069     0.01610
C410        C  0.29057189  0.85595287  0.30119976    -0.10570
C411        C  0.27556551  0.84105974  0.32840129     0.04100
C412        C  0.28910252  0.81186495  0.34003149    -0.09990
H413        H  0.35432367  0.80206337  0.28787750     0.09690
H414        H  0.28070936  0.87883066  0.29231946     0.07220
H415        H  0.27802153  0.80057527  0.36113311     0.07070
O416        O  0.40924527  0.75408334  0.37188316    -0.73450
O417        O  0.35571579  0.68902640  0.33084965    -0.73480
O418        O  0.35935134  0.75578246  0.32819390    -0.73530
O419        O  0.40413911  0.68746513  0.37394557    -0.73580
O420        O  0.36683524  0.69176907  0.41386905    -0.73520
O421        O  0.32205063  0.75919031  0.36823186    -0.73490
O422        O  0.31834326  0.69289849  0.37081082    -0.73470
O423        O  0.37184062  0.75803896  0.41176923    -0.73530
Ni424      Ni  0.38350690  0.72165934  0.34978079     1.25410
Ni425      Ni  0.34349351  0.72582962  0.39257872     1.25360
C426        C  0.39902902  0.76738494  0.39823326     0.88730
C427        C  0.32971366  0.67845141  0.34550811     0.88660
C428        C  0.33353928  0.76921502  0.34110576     0.88690
C429        C  0.39052811  0.67630662  0.39972660     0.88860
C430        C  0.41976381  0.93556687  0.27932284     0.04110
C431        C  0.44960064  0.92230579  0.29117675    -0.12040
C432        C  0.46507952  0.93496262  0.31895650     0.01610
C433        C  0.45066714  0.96242788  0.33439239    -0.10570
C434        C  0.42097422  0.97664820  0.32221380     0.04100
C435        C  0.40607734  0.96305166  0.29450681    -0.09990
H436        H  0.45993651  0.90083448  0.27955530     0.09690
H437        H  0.46177259  0.97191963  0.35634069     0.07220
H438        H  0.38280983  0.97303389  0.28545685     0.07070
O439        O  0.50341237  0.87673484  0.40235327    -0.73450
O440        O  0.57595993  0.91748946  0.35866535    -0.73480
O441        O  0.50740898  0.92598826  0.35952115    -0.73530
O442        O  0.57064735  0.86926789  0.40053028    -0.73580
O443        O  0.56728437  0.83399482  0.35940997    -0.73520
O444        O  0.50259513  0.88963386  0.31974401    -0.73490
O445        O  0.57085584  0.88243424  0.31764871    -0.73470
O446        O  0.49927158  0.84015262  0.36266842    -0.73530
Ni447      Ni  0.53937633  0.89876390  0.38160261     1.25410
Ni448      Ni  0.53459546  0.86040687  0.33830665     1.25360
C449        C  0.48954821  0.85154649  0.39009825     0.88730
C450        C  0.58725584  0.90453426  0.33260662     0.88660
C451        C  0.49348186  0.91640877  0.33327372     0.88690
C452        C  0.58050238  0.84338575  0.38594173     0.88860
O453        O  0.36361067  0.84600749  0.24740500    -0.73450
O454        O  0.40938792  0.88722666  0.17671661    -0.73480
O455        O  0.41235070  0.89118493  0.24289598    -0.73530
O456        O  0.36205562  0.84280489  0.18154221    -0.73580
O457        O  0.32341365  0.88204712  0.18056008    -0.73520
O458        O  0.37355109  0.93025233  0.24293707    -0.73490
O459        O  0.37087796  0.92646668  0.17649191    -0.73470
O460        O  0.32465528  0.88488881  0.24688344    -0.73530
Ni461      Ni  0.38822588  0.86546976  0.21244283     1.25410
Ni462      Ni  0.34675277  0.90735199  0.21196795     1.25360
C463        C  0.33648782  0.85843351  0.25877212     0.88730
C464        C  0.39595540  0.91210471  0.16315840     0.88660
C465        C  0.40118233  0.91846292  0.25347184     0.88690
C466        C  0.33649701  0.85617277  0.16856405     0.88860
C467        C  0.27936702  0.93551027  0.42040851     0.04110
C468        C  0.29315243  0.96327837  0.40559056    -0.12040
C469        C  0.32304644  0.97712658  0.41715675     0.01610
C470        C  0.33891125  0.96297709  0.44408820    -0.10570
C471        C  0.32595370  0.93507648  0.45914293     0.04100
C472        C  0.29596244  0.92179102  0.44733250    -0.09990
H473        H  0.28113337  0.97354903  0.38445485     0.09690
H474        H  0.36223631  0.97306850  0.45266663     0.07220
H475        H  0.28617043  0.89996861  0.45843539     0.07070
C476        C  0.41795219  0.79490923  0.41244367     0.04110
C477        C  0.40639971  0.81009609  0.44095686    -0.12040
C478        C  0.42186879  0.83824779  0.45296926     0.01610
C479        C  0.44964646  0.85075521  0.43654060    -0.10570
C480        C  0.46162428  0.83613233  0.40796571     0.04100
C481        C  0.44577110  0.80804546  0.39615776    -0.09990
H482        H  0.38458880  0.80061594  0.45324926     0.09690
H483        H  0.46138370  0.87266523  0.44555044     0.07220
H484        H  0.45450694  0.79697429  0.37383784     0.07070
O485        O  0.37383731  0.93003900  0.49363392    -0.73450
O486        O  0.42752716  0.88551969  0.55643695    -0.73480
O487        O  0.42099833  0.88278062  0.49041376    -0.73530
O488        O  0.38123469  0.93149125  0.55964182    -0.73580
O489        O  0.34206976  0.89335785  0.56467896    -0.73520
O490        O  0.38137437  0.84519310  0.49509809    -0.73490
O491        O  0.38832698  0.84760683  0.56107203    -0.73470
O492        O  0.33419978  0.89251469  0.49847687    -0.73530
Ni493      Ni  0.40224963  0.90881179  0.52459714     1.25410
Ni494      Ni  0.36003197  0.86835259  0.52976835     1.25360
C495        C  0.34536755  0.91855286  0.48526797     0.88730
C496        C  0.41549070  0.86071311  0.57102168     0.88660
C497        C  0.40758699  0.85608473  0.48106106     0.88690
C498        C  0.35728598  0.91842567  0.57549695     0.88860
O499        O  0.41513492  0.01598837  0.36537094    -0.73450
O500        O  0.36533201  0.08372837  0.40844568    -0.73480
O501        O  0.36643793  0.01676109  0.41114821    -0.73530
O502        O  0.41279659  0.08289777  0.36383345    -0.73580
O503        O  0.37373984  0.08098999  0.32564582    -0.73520
O504        O  0.32715999  0.01505891  0.37309095    -0.73490
O505        O  0.32634729  0.08202366  0.37020341    -0.73470
O506        O  0.37574852  0.01446016  0.32741779    -0.73530
Ni507      Ni  0.39127724  0.04965529  0.38862690     1.25410
Ni508      Ni  0.34938354  0.04777562  0.34777225     1.25360
C509        C  0.40339555  0.00385634  0.33914513     0.88730
C510        C  0.33976938  0.09633814  0.39444379     0.88660
C511        C  0.33941694  0.00455145  0.39978090     0.88690
C512        C  0.39908348  0.09488925  0.33848310     0.88860
O513        O  0.23371014  0.88239129  0.33475334    -0.73450
O514        O  0.16727837  0.92731740  0.38433063    -0.73480
O515        O  0.23588506  0.92964236  0.38021647    -0.73530
O516        O  0.16510208  0.87977636  0.34045158    -0.73580
O517        O  0.16966267  0.84284929  0.37973044    -0.73520
O518        O  0.23883073  0.89284653  0.41957373    -0.73490
O519        O  0.16983388  0.89016292  0.42328360    -0.73470
O520        O  0.23816406  0.84555869  0.37398913    -0.73530
Ni521      Ni  0.20049200  0.90612523  0.35858341     1.25410
Ni522      Ni  0.20453624  0.86658351  0.40054209     1.25360
C523        C  0.24756559  0.85691263  0.34641663     0.88730
C524        C  0.15507364  0.91446852  0.40993283     0.88660
C525        C  0.24963670  0.91886710  0.40621241     0.88690
C526        C  0.15438826  0.85427846  0.35507628     0.88860
O527        O  0.75879133  0.06365370  0.16937846    -0.79910
O528        O  0.72787774  0.94239035  0.26158201    -0.64600
O529        O  0.73088016  0.02353102  0.21807076    -1.11210
C530        C  0.80542011  0.05600435  0.29688669     1.06970
O531        O  0.73311905  0.96090440  0.31147681    -0.77810
O532        O  0.72384778  0.02288827  0.30812767    -0.65390
Ni533      Ni  0.73444187  0.02332988  0.17145479     1.34870
C534        C  0.72017693  0.05078411  0.29588925     0.85710
O535        O  0.69381708  0.96796054  0.21385231    -0.78350
O536        O  0.71225454  0.98168362  0.16534155    -0.88630
C537        C  0.71892383  0.94253295  0.29097623     0.85280
O538        O  0.77605249  0.00202140  0.17490179    -0.66830
O539        O  0.78989093  0.03633464  0.31532557    -0.86120
C540        C  0.78017924  0.97342115  0.18545879     0.86110
C541        C  0.69681926  0.96230198  0.18400004     1.07680
H542        H  0.78720185  0.98550840  0.25790159     0.39480
O543        O  0.76715574  0.99752136  0.26344092    -1.08770
O544        O  0.73805288  0.06102745  0.27238406    -0.65430
Ni545      Ni  0.76840820  0.03866716  0.24240318     1.26350
O546        O  0.76214825  0.96148885  0.20825989    -0.65650
O547        O  0.80585648  0.05266967  0.26643916    -0.77950
C548        C  0.77774616  0.07748564  0.18978687     0.85500
O549        O  0.77038667  0.07809273  0.21949664    -0.65120
Ni550      Ni  0.76294485  0.99754806  0.30977076     1.27450
Ni551      Ni  0.73034740  0.98217335  0.23866003     1.26060
H552        H  0.71089940  0.03544318  0.22405351     0.40040
O553        O  0.70928114  0.18902839  0.97757714    -0.79910
O554        O  0.81955282  0.28590554  0.02651531    -0.64600
O555        O  0.73784942  0.24138839  0.01350397    -1.11210
C556        C  0.71684772  0.30930291  0.92923117     1.06970
O557        O  0.80486420  0.33472734  0.00852460    -0.77810
O558        O  0.74066105  0.33361219  0.00818229    -0.65390
Ni559      Ni  0.73632767  0.19462589  0.01607166     1.34870
C560        C  0.71142030  0.32246421  0.00871608     0.85710
O561        O  0.78491615  0.24412730  0.06058753    -0.78350
O562        O  0.76650984  0.19362617  0.05265652    -0.88630
C563        C  0.81957831  0.31656886  0.02906181     0.85280
O564        O  0.77279161  0.18733705  0.98825935    -0.66830
O565        O  0.73544253  0.33036690  0.94297660    -0.86120
C566        C  0.80061066  0.20141313  0.98570440     0.86110
C567        C  0.78587776  0.21401464  0.06644360     1.07680
H568        H  0.78685177  0.27303621  0.96228736     0.39480
O569        O  0.77142000  0.28176470  0.97815483    -1.08770
O570        O  0.70342640  0.29546186  0.99528630    -0.65430
Ni571      Ni  0.72926383  0.26085793  0.97310905     1.26350
O572        O  0.80703399  0.22900896  0.99865640    -0.65650
O573        O  0.72183678  0.27929507  0.93226567    -0.77950
C574        C  0.69236366  0.20823971  0.95993772     0.85500
O575        O  0.68898231  0.23773743  0.96770212    -0.65120
Ni576      Ni  0.77181698  0.32857668  0.97473104     1.27450
Ni577      Ni  0.77932707  0.26270392  0.01950854     1.26060
H578        H  0.72228926  0.24972980  0.02946050     0.40040
C579        C  0.32836310  0.34198054  0.78111454     0.04110
C580        C  0.30018963  0.35626704  0.79599468    -0.12040
C581        C  0.28596474  0.34314006  0.82452233     0.01610
C582        C  0.30013208  0.31483413  0.83792402    -0.10570
C583        C  0.32818033  0.29975555  0.82344141     0.04100
C584        C  0.34190873  0.31348813  0.79499513    -0.09990
H585        H  0.28995976  0.37844216  0.78584578     0.09690
H586        H  0.28978788  0.30499352  0.86007391     0.07220
H587        H  0.36391821  0.30249952  0.78415154     0.07070
C588        C  0.46974253  0.34129907  0.90890148     0.04110
C589        C  0.45544875  0.31245696  0.89710463    -0.12040
C590        C  0.42699018  0.29907474  0.91189928     0.01610
C591        C  0.41305139  0.31489009  0.93915981    -0.10570
C592        C  0.42702086  0.34384112  0.95134240     0.04100
C593        C  0.45559718  0.35652744  0.93623821    -0.09990
H594        H  0.46591289  0.30094064  0.87571692     0.09690
H595        H  0.39068275  0.30521309  0.95029944     0.07220
H596        H  0.46617108  0.37906044  0.94509319     0.07070
C597        C  0.42514749  0.43845775  0.77729178     0.04110
C598        C  0.41257420  0.46774850  0.79019857    -0.12040
C599        C  0.42803244  0.48278121  0.81705797     0.01610
C600        C  0.45658669  0.46803712  0.83071660    -0.10570
C601        C  0.46946031  0.43885492  0.81770543     0.04100
C602        C  0.45388043  0.42480118  0.79079094    -0.09990
H603        H  0.39002149  0.47818331  0.78003458     0.09690
H604        H  0.46809591  0.47863502  0.85196068     0.07220
H605        H  0.46346474  0.40214335  0.78095243     0.07070
C606        C  0.33288385  0.48414008  0.91087336     0.04110
C607        C  0.34712932  0.47034978  0.93898214    -0.12040
C608        C  0.33278678  0.44290870  0.95393502     0.01610
C609        C  0.30337507  0.42983215  0.94045024    -0.10570
C610        C  0.28876944  0.44316840  0.91223682     0.04100
C611        C  0.30365256  0.47039914  0.89790206    -0.09990
H612        H  0.37005661  0.48034927  0.94860867     0.09690
H613        H  0.29251073  0.40836367  0.95128674     0.07220
H614        H  0.29286207  0.48042812  0.87603936     0.07070
O615        O  0.42391471  0.52380221  0.85879365    -0.73450
O616        O  0.37407731  0.59081251  0.90340508    -0.73480
O617        O  0.37622253  0.52395162  0.90531054    -0.73530
O618        O  0.42129019  0.59109184  0.85826636    -0.73580
O619        O  0.38190116  0.58981217  0.82039590    -0.73520
O620        O  0.33751456  0.52164971  0.86672254    -0.73490
O621        O  0.33491758  0.58786631  0.86534211    -0.73470
O622        O  0.38494555  0.52291033  0.82039673    -0.73530
Ni623      Ni  0.40038949  0.55729262  0.88276528     1.25410
Ni624      Ni  0.35856320  0.55530157  0.84182630     1.25360
C625        C  0.41193888  0.51156525  0.83263233     0.88730
C626        C  0.34711611  0.60163187  0.89042952     0.88660
C627        C  0.34955824  0.51140327  0.89363853     0.88690
C628        C  0.40700553  0.60383952  0.83358431     0.88860
O629        O  0.50708938  0.39418098  0.81988805    -0.73450
O630        O  0.57530686  0.34277882  0.85841402    -0.73480
O631        O  0.50717395  0.34574916  0.86375789    -0.73530
O632        O  0.57493344  0.39019880  0.81570459    -0.73580
O633        O  0.57862776  0.42688080  0.85535397    -0.73520
O634        O  0.51105375  0.38264123  0.90319631    -0.73490
O635        O  0.57915430  0.37932927  0.89840137    -0.73470
O636        O  0.51059441  0.43117656  0.85924678    -0.73530
Ni637      Ni  0.54066875  0.36695531  0.83804046     1.25410
Ni638      Ni  0.54480562  0.40632979  0.88050914     1.25360
C639        C  0.49731227  0.42087499  0.83299912     0.88730
C640        C  0.59009862  0.35416808  0.88329493     0.88660
C641        C  0.49759028  0.35708069  0.89124775     0.88690
C642        C  0.59011492  0.41388014  0.82936471     0.88860
O643        O  0.37226798  0.34592174  0.74125959    -0.73450
O644        O  0.42173768  0.39136760  0.67570564    -0.73480
O645        O  0.41932597  0.39303933  0.74154943    -0.73530
O646        O  0.37480365  0.34600788  0.67437169    -0.73580
O647        O  0.33470886  0.38368686  0.67423638    -0.73520
O648        O  0.38052923  0.43202925  0.73931095    -0.73490
O649        O  0.38154461  0.42908430  0.67285685    -0.73470
O650        O  0.33333400  0.38477533  0.74103940    -0.73530
Ni651      Ni  0.39830877  0.36762819  0.70849741     1.25410
Ni652      Ni  0.35601846  0.40867707  0.70701718     1.25360
C653        C  0.34520608  0.35817391  0.75286180     0.88730
C654        C  0.40898931  0.41657271  0.66232106     0.88660
C655        C  0.40754579  0.42049701  0.75129513     0.88690
C656        C  0.34929190  0.35927936  0.66097654     0.88860
O657        O  0.37816076  0.43683570  0.99199054    -0.73450
O658        O  0.42773111  0.38802537  0.05553232    -0.73480
O659        O  0.42420748  0.38816451  0.98925180    -0.73530
O660        O  0.38253573  0.43535517  0.05893653    -0.73580
O661        O  0.34208707  0.39843552  0.06021799    -0.73520
O662        O  0.38352345  0.35140412  0.99070525    -0.73490
O663        O  0.38727416  0.35085286  0.05669262    -0.73470
O664        O  0.33758760  0.40002934  0.99354310    -0.73530
Ni665      Ni  0.40449332  0.41351519  0.02365660     1.25410
Ni666      Ni  0.36106048  0.37402240  0.02519872     1.25360
C667        C  0.35011304  0.42605552  0.98146715     0.88730
C668        C  0.41495100  0.36214376  0.06741105     0.88660
C669        C  0.41089169  0.36189938  0.97852861     0.88690
C670        C  0.35741583  0.42244535  0.07319615     0.88860
O671        O  0.42088749  0.25881836  0.87010084    -0.73450
O672        O  0.37084067  0.19198780  0.82726413    -0.73480
O673        O  0.37112824  0.25898174  0.82620664    -0.73530
O674        O  0.42034048  0.19179157  0.86946337    -0.73580
O675        O  0.38293861  0.19191729  0.90937517    -0.73520
O676        O  0.33385097  0.26020478  0.86630397    -0.73490
O677        O  0.33340440  0.19308850  0.86716491    -0.73470
O678        O  0.38366274  0.25914554  0.91027992    -0.73530
Ni679      Ni  0.39710564  0.22558834  0.84685852     1.25410
Ni680      Ni  0.35716406  0.22632299  0.88973668     1.25360
C681        C  0.40999513  0.27066250  0.89695080     0.88730
C682        C  0.34557191  0.17954619  0.84178459     0.88660
C683        C  0.34489470  0.27136552  0.83927884     0.88690
C684        C  0.40789274  0.17855046  0.89475079     0.88860
O685        O  0.24647833  0.40267958  0.91098892    -0.73450
O686        O  0.17785277  0.35342477  0.87078669    -0.73480
O687        O  0.24676461  0.35199691  0.86892940    -0.73530
O688        O  0.17747104  0.40472901  0.90961543    -0.73580
O689        O  0.17991474  0.43868946  0.86762284    -0.73520
O690        O  0.24561640  0.38567544  0.82681910    -0.73490
O691        O  0.17669126  0.38744902  0.82881590    -0.73470
O692        O  0.24861829  0.43619580  0.86877903    -0.73530
Ni693      Ni  0.21238090  0.37701887  0.89160031     1.25410
Ni694      Ni  0.21300214  0.41317453  0.84650837     1.25360
C695        C  0.25964589  0.42692641  0.89660785     0.88730
C696        C  0.16364301  0.36415756  0.84530733     0.88660
C697        C  0.25786442  0.36073423  0.84093919     0.88690
C698        C  0.16536475  0.42859746  0.89315600     0.88860
C699        C  0.67225128  0.67725258  0.20150660     0.04110
C700        C  0.65796213  0.70526687  0.18745893    -0.12040
C701        C  0.67073032  0.71887093  0.15860206     0.01610
C702        C  0.69888311  0.70445645  0.14396009    -0.10570
C703        C  0.71396410  0.67665279  0.15747365     0.04100
C704        C  0.70047409  0.66329385  0.18632642    -0.09990
H705        H  0.63593297  0.71597866  0.19852765     0.09690
H706        H  0.70855870  0.71440933  0.12157684     0.07220
H707        H  0.71135065  0.64142471  0.19650999     0.07070
O708        O  0.66696372  0.63494616  0.24242254    -0.73450
O709        O  0.61573889  0.59169050  0.30952670    -0.73480
O710        O  0.61828434  0.58900927  0.24280690    -0.73530
O711        O  0.66428767  0.63608772  0.30979043    -0.73580
O712        O  0.62560716  0.67505046  0.30824354    -0.73520
O713        O  0.58007823  0.62847836  0.24044799    -0.73490
O714        O  0.57734753  0.63083429  0.30653923    -0.73470
O715        O  0.62853448  0.67422493  0.24130457    -0.73530
Ni716      Ni  0.64278609  0.61158645  0.27605890     1.25410
Ni717      Ni  0.60167936  0.65355595  0.27387408     1.25360
C718        C  0.65550650  0.66148608  0.23007402     0.88730
C719        C  0.58880416  0.60522266  0.32021676     0.88660
C720        C  0.59163145  0.60101697  0.23035527     0.88690
C721        C  0.65088161  0.66170747  0.32211258     0.88860
C722        C  0.71304743  0.58340585  0.06384687     0.04110
C723        C  0.69865552  0.59861621  0.03645841    -0.12040
C724        C  0.66884088  0.58688623  0.02250459     0.01610
C725        C  0.65370969  0.55925875  0.03602845    -0.10570
C726        C  0.66743207  0.54383285  0.06326910     0.04100
C727        C  0.69725180  0.55591121  0.07679957    -0.09990
H728        H  0.71003673  0.62031649  0.02662387     0.09690
H729        H  0.63051038  0.55031858  0.02597222     0.07220
H730        H  0.70766368  0.54451571  0.09816371     0.07070
C731        C  0.52724531  0.67696534  0.07233515     0.04110
C732        C  0.54117758  0.66382208  0.04350768    -0.12040
C733        C  0.56881197  0.67873009  0.02837717     0.01610
C734        C  0.58182166  0.70720712  0.04231996    -0.10570
C735        C  0.56849598  0.72035983  0.07110994     0.04100
C736        C  0.54108399  0.70528118  0.08569699    -0.09990
H737        H  0.53118856  0.64155962  0.03342058     0.09690
H738        H  0.60334879  0.71861674  0.03127987     0.07220
H739        H  0.53107873  0.71515893  0.10807591     0.07070
C740        C  0.57321368  0.54099886  0.16149577     0.04110
C741        C  0.58862259  0.55575686  0.18852269    -0.12040
C742        C  0.57426910  0.58347692  0.20350645     0.01610
C743        C  0.54398358  0.59586523  0.19129436    -0.10570
C744        C  0.52830330  0.58167247  0.16427648     0.04100
C745        C  0.54289603  0.55408487  0.14989750    -0.09990
H746        H  0.61231045  0.54636779  0.19716450     0.09690
H747        H  0.53314985  0.61747552  0.20221440     0.07220
H748        H  0.53121040  0.54354712  0.12871731     0.07070
O749        O  0.48669439  0.58737857  0.12241682    -0.73450
O750        O  0.41823621  0.63792618  0.08029901    -0.73480
O751        O  0.48658590  0.63493090  0.07738526    -0.73530
O752        O  0.41787563  0.59001635  0.12301832    -0.73580
O753        O  0.41854051  0.62721308  0.16221308    -0.73520
O754        O  0.48936926  0.67142487  0.11724495    -0.73490
O755        O  0.42130004  0.67497676  0.11963485    -0.73470
O756        O  0.48742368  0.62397261  0.16226261    -0.73530
Ni757      Ni  0.45246927  0.61119015  0.09940770     1.25410
Ni758      Ni  0.45449439  0.65060630  0.14181086     1.25360
C759        C  0.49901147  0.59804182  0.14912207     0.88730
C760        C  0.40693131  0.66358766  0.09453482     0.88660
C761        C  0.49960670  0.66041993  0.08973774     0.88690
C762        C  0.40443720  0.60303658  0.14804561     0.88860
O763        O  0.61807026  0.50243551  0.15226742    -0.73450
O764        O  0.66048860  0.43617021  0.09989950    -0.73480
O765        O  0.66319138  0.50267462  0.10343616    -0.73530
O766        O  0.61722770  0.43601689  0.14840108    -0.73580
O767        O  0.57666666  0.43630180  0.11160845    -0.73520
O768        O  0.62090660  0.50728518  0.06872166    -0.73490
O769        O  0.61998493  0.44116090  0.06311712    -0.73470
O770        O  0.57566829  0.50320142  0.11745884    -0.73530
Ni771      Ni  0.64118962  0.46940431  0.12728156     1.25410
Ni772      Ni  0.59668996  0.47232634  0.08904612     1.25360
C773        C  0.58971747  0.51397376  0.14318829     0.88730
C774        C  0.64621678  0.42691039  0.07365925     0.88660
C775        C  0.64967574  0.51645911  0.07899939     0.88690
C776        C  0.59161742  0.42280530  0.13559927     0.88860
O777        O  0.66321627  0.63221184  0.98611999    -0.73450
O778        O  0.61396875  0.68157414  0.92341938    -0.73480
O779        O  0.61334061  0.67681774  0.98942245    -0.73530
O780        O  0.66305524  0.63759821  0.91978573    -0.73580
O781        O  0.62543602  0.59804939  0.91701090    -0.73520
O782        O  0.57488336  0.63800488  0.98623276    -0.73490
O783        O  0.57628904  0.64200930  0.91943411    -0.73470
O784        O  0.62486860  0.59324385  0.98343238    -0.73530
Ni785      Ni  0.63970412  0.65840831  0.95491285     1.25410
Ni786      Ni  0.59902370  0.61639382  0.95154455     1.25360
C787        C  0.65175333  0.60481509  0.99578863     0.88730
C788        C  0.58820814  0.66920916  0.90980962     0.88660
C789        C  0.58620905  0.66385998  0.99975604     0.88690
C790        C  0.65145577  0.61224903  0.90569242     0.88860
O791        O  0.75381231  0.67079011  0.11342277    -0.73450
O792        O  0.82515635  0.62254189  0.07091880    -0.73480
O793        O  0.75596027  0.62332366  0.06793375    -0.73530
O794        O  0.82249043  0.67112212  0.11348631    -0.73580
O795        O  0.82332410  0.63405173  0.15258148    -0.73520
O796        O  0.75324733  0.58702629  0.10774869    -0.73490
O797        O  0.82219975  0.58549740  0.11019126    -0.73470
O798        O  0.75451868  0.63438219  0.15323143    -0.73530
Ni799      Ni  0.78917584  0.64817745  0.08995883     1.25410
Ni800      Ni  0.78807305  0.60890882  0.13229296     1.25360
C801        C  0.74231625  0.66010828  0.14056083     0.88730
C802        C  0.83722871  0.59766220  0.08584033     0.88660
C803        C  0.74248183  0.59821463  0.08052289     0.88690
C804        C  0.83600160  0.65932111  0.13887342     0.88860
O805        O  0.61108432  0.76011443  0.07349115    -0.73450
O806        O  0.66211582  0.82495190  0.11559965    -0.73480
O807        O  0.66258037  0.75819116  0.11561204    -0.73530
O808        O  0.61025669  0.82680819  0.07603948    -0.73580
O809        O  0.57496298  0.82520773  0.11787382    -0.73520
O810        O  0.62689359  0.75819848  0.15708046    -0.73490
O811        O  0.62675290  0.82475913  0.15758201    -0.73470
O812        O  0.57544721  0.75844187  0.11498342    -0.73530
Ni813      Ni  0.63776229  0.79232421  0.09367271     1.25410
Ni814      Ni  0.59974837  0.79140144  0.13835159     1.25360
C815        C  0.58542676  0.74793688  0.08722550     0.88730
C816        C  0.65122886  0.83730809  0.14193417     0.88660
C817        C  0.65287426  0.74663450  0.14300748     0.88690
C818        C  0.58561172  0.83898371  0.09218365     0.88860
O819        O  0.76449653  0.57583713  0.67618686    -0.79910
O820        O  0.72886310  0.44979878  0.75878281    -0.64600
O821        O  0.73370753  0.53469468  0.72259142    -1.11210
C822        C  0.81369141  0.55648853  0.79991504     1.06970
O823        O  0.74079100  0.46222736  0.80952792    -0.77810
O824        O  0.73160280  0.52489021  0.81293999    -0.65390
Ni825      Ni  0.73687002  0.53760315  0.67636939     1.34870
C826        C  0.72705393  0.55363283  0.80284323     0.85710
O827        O  0.69264069  0.48148760  0.71598595    -0.78350
O828        O  0.71118361  0.49805817  0.66830848    -0.88630
C829        C  0.72322767  0.44727327  0.78880739     0.85280
O830        O  0.77723035  0.51434904  0.68009807    -0.66830
O831        O  0.79794020  0.53636434  0.81745851    -0.86120
C832        C  0.77756441  0.48400555  0.68347662     0.86110
C833        C  0.69419861  0.47842553  0.68556208     1.07680
H834        H  0.79008638  0.49056952  0.75512896     0.39480
O835        O  0.77110285  0.50281435  0.76315975    -1.08770
O836        O  0.74450836  0.56596091  0.77985483    -0.65430
Ni837      Ni  0.77313678  0.54586171  0.74625759     1.26350
O838        O  0.75984458  0.47067258  0.70557883    -0.65650
O839        O  0.81265728  0.55550389  0.76939394    -0.77950
C840        C  0.78173169  0.59117474  0.69697826     0.85500
O841        O  0.77675805  0.58764207  0.72708670    -0.65120
Ni842      Ni  0.77032816  0.49874973  0.80957184     1.27450
Ni843      Ni  0.73188802  0.49138052  0.73956767     1.26060
H844        H  0.71456702  0.54710086  0.73000704     0.40040
O845        O  0.99880205  0.06554811  0.56432242    -0.79910
O846        O  0.00856538  0.94750581  0.47272482    -0.64600
O847        O  0.02429877  0.02818677  0.51266802    -1.11210
C848        C  0.93316408  0.06252959  0.44816280     1.06970
O849        O  0.00301182  0.96847066  0.42445046    -0.77810
O850        O  0.00209170  0.03132244  0.41672262    -0.65390
Ni851      Ni  0.03388931  0.03315627  0.55777150     1.34870
C852        C  0.01774101  0.05448987  0.42992696     0.85710
O853        O  0.05376018  0.96768362  0.51322586    -0.78350
O854        O  0.06728454  0.99841366  0.55651396    -0.88630
C855        C  0.01815587  0.94937398  0.44366852     0.85280
O856        O  0.00298861  0.00240087  0.57271416    -0.66830
O857        O  0.93652978  0.03649330  0.43137711    -0.86120
C858        C  0.98698484  0.97923528  0.55998637     0.86110
C859        C  0.06862819  0.97201036  0.53987514     1.07680
H860        H  0.95785831  0.99850632  0.48667549     0.39480
O861        O  0.97751804  0.00683267  0.47594785    -1.08770
O862        O  0.01353668  0.06376300  0.45909520    -0.65430
Ni863      Ni  0.98586287  0.04828497  0.49408504     1.26350
O864        O  0.98858407  0.97143705  0.53008088    -0.65650
O865        O  0.94821522  0.06795628  0.47465650    -0.77950
C866        C  0.98407431  0.08510765  0.54510422     0.85500
O867        O  0.99382070  0.08752505  0.51616084    -0.65120
Ni868      Ni  0.96916918  0.00172062  0.43063562     1.27450
Ni869      Ni  0.01595699  0.98697957  0.49451939     1.26060
H870        H  0.04391344  0.03638483  0.50177223     0.40040
C871        C  0.54441035  0.09505440  0.66361090     0.04110
C872        C  0.56014223  0.06827966  0.64856316    -0.12040
C873        C  0.58902978  0.05394966  0.66190813     0.01610
C874        C  0.60181142  0.06638859  0.69122224    -0.10570
C875        C  0.58646309  0.09303950  0.70689005     0.04100
C876        C  0.55764481  0.10701213  0.69288633    -0.09990
H877        H  0.55055470  0.05928641  0.62574211     0.09690
H878        H  0.62435434  0.05592195  0.70137663     0.07220
H879        H  0.54603988  0.12798233  0.70429656     0.07070
C880        C  0.68355450  0.09659495  0.52116336     0.04110
C881        C  0.67034783  0.06829859  0.53559670    -0.12040
C882        C  0.68468723  0.05482789  0.56367809     0.01610
C883        C  0.71316885  0.06958396  0.57692535    -0.10570
C884        C  0.72685013  0.09793445  0.56336861     0.04100
C885        C  0.71194001  0.11119988  0.53530263    -0.09990
H886        H  0.64807752  0.05731732  0.52559487     0.09690
H887        H  0.72398614  0.05964322  0.59880952     0.07220
H888        H  0.72181379  0.13340305  0.52504730     0.07070
C889        C  0.58674915  0.18738644  0.52492161     0.04110
C890        C  0.55766459  0.17468860  0.53925267    -0.12040
C891        C  0.54528718  0.18753134  0.56850188     0.01610
C892        C  0.56195337  0.21358767  0.58305259    -0.10570
C893        C  0.59119919  0.22645347  0.56947260     0.04100
C894        C  0.60333927  0.21343055  0.54020533    -0.09990
H895        H  0.54520496  0.15417337  0.52813573     0.09690
H896        H  0.55266107  0.22321635  0.60581296     0.07220
H897        H  0.62615241  0.22298676  0.52983301     0.07070
O898        O  0.67643891  0.13874340  0.48088951    -0.73450
O899        O  0.62331856  0.18223540  0.41605588    -0.73480
O900        O  0.62738829  0.18395172  0.48256787    -0.73530
O901        O  0.67207068  0.13834377  0.41420828    -0.73580
O902        O  0.63400957  0.09916847  0.41665032    -0.73520
O903        O  0.58931513  0.14469432  0.48536460    -0.73490
O904        O  0.58535222  0.14301882  0.41893719    -0.73470
O905        O  0.63834913  0.09952428  0.48312842    -0.73530
Ni906      Ni  0.65116201  0.16221907  0.44846848     1.25410
Ni907      Ni  0.61045685  0.12020218  0.45128139     1.25360
C908        C  0.66557771  0.11221945  0.49342818     0.88730
C909        C  0.59679025  0.16854548  0.40518202     0.88660
C910        C  0.60154848  0.17148699  0.49592724     0.88690
C911        C  0.65880144  0.11267767  0.40239161     0.88860
O912        O  0.50381533  0.10069330  0.62105665    -0.73450
O913        O  0.43548475  0.14877072  0.57640943    -0.73480
O914        O  0.50382558  0.14630663  0.57409500    -0.73530
O915        O  0.43533807  0.10350444  0.62194850    -0.73580
O916        O  0.43629856  0.14286305  0.65936884    -0.73520
O917        O  0.50630046  0.18461689  0.61227181    -0.73490
O918        O  0.43806254  0.18778626  0.61375152    -0.73470
O919        O  0.50495748  0.13903924  0.65924435    -0.73530
Ni920      Ni  0.46972582  0.12340992  0.59705252     1.25410
Ni921      Ni  0.47171698  0.16491873  0.63753476     1.25360
C922        C  0.51609148  0.11220357  0.64738196     0.88730
C923        C  0.42389942  0.17509540  0.58902132     0.88660
C924        C  0.51682429  0.17227509  0.58553753     0.88690
C925        C  0.42276688  0.11773722  0.64672240     0.88860
C926        C  0.68387444  0.22803319  0.66922978     0.04110
C927        C  0.71250338  0.21405879  0.65540069    -0.12040
C928        C  0.72618532  0.18492762  0.66698009     0.01610
C929        C  0.71139806  0.17029196  0.69453563    -0.10570
C930        C  0.68290158  0.18459606  0.70969207     0.04100
C931        C  0.66945375  0.21346408  0.69656022    -0.09990
H932        H  0.72339387  0.22529363  0.63419371     0.09690
H933        H  0.72138541  0.14751368  0.70352678     0.07220
H934        H  0.64704554  0.22411051  0.70697615     0.07070
O935        O  0.63733696  0.26311988  0.57694072    -0.73450
O936        O  0.67887511  0.33344899  0.62319351    -0.73480
O937        O  0.68126959  0.26667808  0.62658716    -0.73530
O938        O  0.63669435  0.32914456  0.57440024    -0.73580
O939        O  0.59476154  0.33031161  0.61010271    -0.73520
O940        O  0.63922678  0.26661386  0.66203954    -0.73490
O941        O  0.63716542  0.33328434  0.65889617    -0.73470
O942        O  0.59543203  0.26453746  0.61255047    -0.73530
Ni943      Ni  0.66020163  0.29778200  0.59915267     1.25410
Ni944      Ni  0.61522365  0.29848837  0.63721980     1.25360
C945        C  0.60897636  0.25267551  0.58698083     0.88730
C946        C  0.66274781  0.34709599  0.64652270     0.88660
C947        C  0.66748705  0.25550521  0.65226151     0.88690
C948        C  0.60956047  0.34168388  0.58503662     0.88860
O949        O  0.63484863  0.01664689  0.65514763    -0.73450
O950        O  0.68207304  0.94934533  0.60931949    -0.73480
O951        O  0.68134475  0.01642887  0.60728314    -0.73530
O952        O  0.63665193  0.94988895  0.65549317    -0.73580
O953        O  0.59629036  0.94887411  0.61856959    -0.73520
O954        O  0.64113001  0.01522111  0.57013972    -0.73490
O955        O  0.64173131  0.94804532  0.57236768    -0.73470
O956        O  0.59458684  0.01571551  0.61803333    -0.73530
Ni957      Ni  0.66018158  0.98345855  0.63306152     1.25410
Ni958      Ni  0.61703071  0.98223902  0.59341067     1.25360
C959        C  0.60690082  0.02735551  0.64427389     0.88730
C960        C  0.66734055  0.93495779  0.58582998     0.88660
C961        C  0.66845297  0.02723199  0.58095469     0.88690
C962        C  0.61106684  0.93611941  0.64297133     0.88860
O963        O  0.76801464  0.10143584  0.60550982    -0.73450
O964        O  0.83628981  0.14649450  0.65285882    -0.73480
O965        O  0.76759242  0.14293383  0.65681443    -0.73530
O966        O  0.83653680  0.10515804  0.60336590    -0.73580
O967        O  0.83376234  0.14691553  0.56918936    -0.73520
O968        O  0.76411680  0.18397416  0.62194041    -0.73490
O969        O  0.83244913  0.18801694  0.61863636    -0.73470
O970        O  0.76493981  0.14256138  0.57065600    -0.73530
Ni971      Ni  0.80203107  0.12249975  0.63082547     1.25410
Ni972      Ni  0.79838429  0.16680736  0.59390544     1.25360
C973        C  0.75486286  0.11467576  0.58039709     0.88730
C974        C  0.84751458  0.17353339  0.64186496     0.88660
C975        C  0.75416806  0.16982208  0.64796850     0.88690
C976        C  0.84852169  0.12118474  0.57943162     0.88860
O977        O  0.67714856  0.14248466  0.74989105    -0.73450
O978        O  0.62683169  0.09748268  0.81526262    -0.73480
O979        O  0.62902526  0.09652853  0.74821955    -0.73530
O980        O  0.67319243  0.14338488  0.81699760    -0.73580
O981        O  0.63390520  0.18181243  0.81444299    -0.73520
O982        O  0.58930560  0.13463604  0.74745626    -0.73490
O983        O  0.58761692  0.13599806  0.81439638    -0.73470
O984        O  0.63738245  0.18048017  0.74781778    -0.73530
Ni985      Ni  0.65295703  0.11859426  0.78247568     1.25410
Ni986      Ni  0.61068427  0.15954381  0.78073719     1.25360
C987        C  0.66518905  0.16853529  0.73734233     0.88730
C988        C  0.60081961  0.11087247  0.82780752     0.88660
C989        C  0.60215510  0.10845429  0.73588685     0.88690
C990        C  0.65886493  0.16884013  0.82888133     0.88860
C991        C  0.08885043  0.73418678  0.57716063     0.04110
C992        C  0.05938630  0.72230722  0.59194770    -0.12040
C993        C  0.04242726  0.69527144  0.57885337     0.01610
C994        C  0.05516613  0.68061279  0.55070525    -0.10570
C995        C  0.08469818  0.69163942  0.53603828     0.04100
C996        C  0.10109952  0.71866224  0.54911226    -0.09990
H997        H  0.05013711  0.73356082  0.61397930     0.09690
H998        H  0.04261102  0.65955435  0.54078120     0.07220
H999        H  0.12410936  0.72689983  0.53802900     0.07070
O1000       O  0.08472076  0.64681342  0.49990180    -0.73450
O1001       O  0.12198783  0.59276275  0.43464354    -0.73480
O1002       O  0.12918364  0.59706308  0.50011805    -0.73530
O1003       O  0.07995564  0.64241304  0.43398892    -0.73580
O1004       O  0.12214235  0.67718150  0.42949941    -0.73520
O1005       O  0.17137801  0.63177378  0.49454523    -0.73490
O1006       O  0.16454438  0.62729189  0.42878561    -0.73470
O1007       O  0.12689994  0.68170473  0.49549419    -0.73530
Ni1008     Ni  0.10247019  0.61859032  0.46766173     1.25410
Ni1009     Ni  0.14776073  0.65577866  0.46208185     1.25360
C1010       C  0.09944412  0.67281490  0.50890555     0.88730
C1011       C  0.14778153  0.60246561  0.41941571     0.88660
C1012       C  0.15852712  0.60687218  0.50816300     0.88690
C1013       C  0.09459221  0.66564030  0.41890262     0.88860
C1014       C  0.18623408  0.72824797  0.66635208     0.04110
C1015       C  0.21457027  0.71252294  0.65332986    -0.12040
C1016       C  0.22545013  0.68227502  0.66534769     0.01610
C1017       C  0.20796709  0.66803826  0.69108656    -0.10570
C1018       C  0.17947577  0.68317035  0.70436275     0.04100
C1019       C  0.16897612  0.71344211  0.69207867    -0.09990
H1020       H  0.22759400  0.72338629  0.63306536     0.09690
H1021       H  0.21589406  0.64448987  0.70004543     0.07220
H1022       H  0.14664847  0.72491422  0.70177330     0.07070
C1023       C  0.22358071  0.58695833  0.57320782     0.04110
C1024       C  0.20736434  0.60221702  0.54687767    -0.12040
C1025       C  0.17750560  0.58950599  0.53389165     0.01610
C1026       C  0.16450200  0.56078887  0.54685251    -0.10570
C1027       C  0.17975295  0.54518794  0.57315897     0.04100
C1028       C  0.20937239  0.55835187  0.58618192    -0.09990
H1029       H  0.21729104  0.62468321  0.53725903     0.09690
H1030       H  0.14141419  0.55120551  0.53715538     0.07220
H1031       H  0.22077389  0.54686718  0.60701836     0.07070
O1032       O  0.26585412  0.67589229  0.62327399    -0.73450
O1033       O  0.33434287  0.62870230  0.57852321    -0.73480
O1034       O  0.26535207  0.62898039  0.57741584    -0.73530
O1035       O  0.33404172  0.67436478  0.62444591    -0.73580
O1036       O  0.33248974  0.63677007  0.66306460    -0.73520
O1037       O  0.26525251  0.59043746  0.61518155    -0.73490
O1038       O  0.33469676  0.59098535  0.61730517    -0.73470
O1039       O  0.26404191  0.63748706  0.66118314    -0.73530
Ni1040     Ni  0.29977077  0.65323625  0.59951933     1.25410
Ni1041     Ni  0.29887695  0.61245730  0.64046220     1.25360
C1042       C  0.25333028  0.66446459  0.64938116     0.88730
C1043       C  0.34782336  0.60400465  0.59212700     0.88660
C1044       C  0.25312909  0.60262657  0.58909465     0.88690
C1045       C  0.34596585  0.66203185  0.65056231     0.88860
C1046       C  0.07549360  0.55028629  0.65896356     0.04110
C1047       C  0.08992515  0.56329866  0.68719022    -0.12040
C1048       C  0.07634451  0.59063407  0.70253534     0.01610
C1049       C  0.04703057  0.60439552  0.69064491    -0.10570
C1050       C  0.03220429  0.59297368  0.66215485     0.04100
C1051       C  0.04646886  0.56553087  0.64619637    -0.09990
H1052       H  0.11272895  0.55284341  0.69678832     0.09690
H1053       H  0.03668896  0.62550812  0.70289511     0.07220
H1054       H  0.03574246  0.55677169  0.62377851     0.07070
O1055       O  0.11914489  0.51069376  0.65705459    -0.73450
O1056       O  0.16922165  0.44026246  0.62041823    -0.73480
O1057       O  0.17175892  0.50695435  0.61631974    -0.73530
O1058       O  0.11743514  0.44485210  0.66034352    -0.73580
O1059       O  0.08164994  0.44325980  0.61910057    -0.73520
O1060       O  0.13595000  0.50580356  0.57513643    -0.73490
O1061       O  0.13364133  0.43878457  0.57909965    -0.73470
O1062       O  0.08300070  0.51009282  0.61618894    -0.73530
Ni1063     Ni  0.14565171  0.47588174  0.63989990     1.25410
Ni1064     Ni  0.10741302  0.47460759  0.59572655     1.25360
C1065       C  0.09303428  0.52223078  0.64312444     0.88730
C1066       C  0.15779345  0.42600280  0.59522601     0.88660
C1067       C  0.16208882  0.51756418  0.58875063     0.88690
C1068       C  0.09162895  0.43276982  0.64658936     0.88860
O1069       O  0.99802925  0.65633311  0.58161161    -0.73450
O1070       O  0.92232117  0.61697872  0.62326583    -0.73480
O1071       O  0.93099685  0.66617384  0.58273703    -0.73530
O1072       O  0.99058556  0.60510537  0.62181699    -0.73580
O1073       O  0.99691506  0.63992136  0.66271100    -0.73520
O1074       O  0.93479785  0.69977579  0.62518312    -0.73490
O1075       O  0.92926403  0.65003656  0.66557758    -0.73470
O1076       O  0.00272273  0.69139171  0.62254334    -0.73530
Ni1077     Ni  0.96037194  0.63482877  0.60093324     1.25410
Ni1078     Ni  0.96633295  0.67136005  0.64557262     1.25360
C1079       C  0.01280511  0.68053519  0.59507328     0.88730
C1080       C  0.91190015  0.62897897  0.65024490     0.88660
C1081       C  0.92185488  0.69180835  0.59803423     0.88690
C1082       C  0.00480557  0.61316783  0.64831342     0.88860
O1083       O  0.13620218  0.76973213  0.57905340    -0.73450
O1084       O  0.19065809  0.83425328  0.62027829    -0.73480
O1085       O  0.18516658  0.76749245  0.62372535    -0.73530
O1086       O  0.14324996  0.83613870  0.57631090    -0.73580
O1087       O  0.10427085  0.84051889  0.61493400    -0.73520
O1088       O  0.14709279  0.77253179  0.66289450    -0.73490
O1089       O  0.15209499  0.83932097  0.65894743    -0.73470
O1090       O  0.09816377  0.77436044  0.61830438    -0.73530
Ni1091     Ni  0.16520154  0.80146745  0.59849095     1.25410
Ni1092     Ni  0.12411506  0.80671632  0.64023650     1.25360
C1093       C  0.10847828  0.76095122  0.59207677     0.88730
C1094       C  0.17833247  0.84975362  0.64452343     0.88660
C1095       C  0.17251433  0.75788161  0.65057414     0.88690
C1096       C  0.11832146  0.85094111  0.58909299     0.88860
O1097       O  0.08298581  0.63392962  0.74020596    -0.73450
O1098       O  0.13108998  0.67879278  0.80560439    -0.73480
O1099       O  0.13230884  0.67874211  0.73987814    -0.73530
O1100       O  0.08275955  0.63510706  0.80615526    -0.73580
O1101       O  0.12022162  0.59485238  0.80557310    -0.73520
O1102       O  0.17062999  0.63921344  0.74100806    -0.73490
O1103       O  0.16855329  0.63823350  0.80688982    -0.73470
O1104       O  0.12141472  0.59447412  0.73987407    -0.73530
Ni1105     Ni  0.10587540  0.65805551  0.77266323     1.25410
Ni1106     Ni  0.14656533  0.61527573  0.77308441     1.25360
C1107       C  0.09427916  0.60689736  0.72908424     0.88730
C1108       C  0.15603167  0.66440038  0.81858619     0.88660
C1109       C  0.15989649  0.66634847  0.72974833     0.88690
C1110       C  0.09507882  0.60919767  0.81863264     0.88860
C1111       C  0.78158119  0.34644282  0.31354096     0.04110
C1112       C  0.79782612  0.36014936  0.28661142    -0.12040
C1113       C  0.82734835  0.34583197  0.27396266     0.01610
C1114       C  0.84037344  0.31764678  0.28849441    -0.10570
C1115       C  0.82479317  0.30390347  0.31552969     0.04100
C1116       C  0.79517067  0.31806058  0.32741182    -0.09990
H1117       H  0.78809924  0.38241645  0.27619555     0.09690
H1118       H  0.86346570  0.30706504  0.27951171     0.07220
H1119       H  0.78340216  0.30764309  0.34860139     0.07070
O1120       O  0.74190760  0.39079638  0.32094188    -0.73450
O1121       O  0.67139395  0.43145610  0.37126487    -0.73480
O1122       O  0.73975007  0.43080429  0.37298997    -0.73530
O1123       O  0.67317796  0.39370697  0.31894379    -0.73580
O1124       O  0.67027621  0.35043417  0.35133583    -0.73520
O1125       O  0.73903423  0.38787539  0.40572069    -0.73490
O1126       O  0.67047431  0.38850950  0.40396825    -0.73470
O1127       O  0.73879176  0.34787590  0.35355899    -0.73530
Ni1128     Ni  0.70681157  0.41321055  0.34490805     1.25410
Ni1129     Ni  0.70473369  0.36709825  0.37975758     1.25360
C1130       C  0.75240847  0.36250477  0.32965254     0.88730
C1131       C  0.65791114  0.41552411  0.39464831     0.88660
C1132       C  0.75096101  0.41576660  0.39779605     0.88690
C1133       C  0.65908703  0.36727877  0.32744216     0.88860
C1134       C  0.82138570  0.43042224  0.45881756     0.04110
C1135       C  0.79337425  0.41632624  0.44351089    -0.12040
C1136       C  0.77877681  0.43114833  0.41618585     0.01610
C1137       C  0.79239065  0.46046336  0.40449183    -0.10570
C1138       C  0.82036512  0.47471994  0.41897731     0.04100
C1139       C  0.83442167  0.45969098  0.44638184    -0.09990
H1140       H  0.78346615  0.39351966  0.45232585     0.09690
H1141       H  0.78189133  0.47178063  0.38313150     0.07220
H1142       H  0.85634883  0.47028147  0.45745628     0.07070
C1143       C  0.92167600  0.47631456  0.32805187     0.04110
C1144       C  0.95102014  0.46293959  0.34122744    -0.12040
C1145       C  0.96749825  0.43676297  0.32592736     0.01610
C1146       C  0.95445249  0.42431001  0.29671501    -0.10570
C1147       C  0.92510110  0.43726222  0.28292708     0.04100
C1148       C  0.90911596  0.46345601  0.29873565    -0.09990
H1149       H  0.96044526  0.47225254  0.36398827     0.09690
H1150       H  0.96664447  0.40373261  0.28516725     0.07220
H1151       H  0.88623667  0.47324846  0.28863191     0.07070
C1152       C  0.92114130  0.34051335  0.46064908     0.04110
C1153       C  0.95022089  0.35433589  0.44700654    -0.12040
C1154       C  0.96386805  0.34217342  0.41774749     0.01610
C1155       C  0.94800184  0.31579280  0.40248099    -0.10570
C1156       C  0.91882235  0.30199839  0.41556832     0.04100
C1157       C  0.90599310  0.31419888  0.44479186    -0.09990
H1158       H  0.96159983  0.37516950  0.45861284     0.09690
H1159       H  0.95774768  0.30666193  0.37969451     0.07220
H1160       H  0.88330429  0.30384776  0.45464251     0.07070
O1161       O  0.00567032  0.38393145  0.41430578    -0.73450
O1162       O  0.07684861  0.42844264  0.37041047    -0.73480
O1163       O  0.00772741  0.43118866  0.36885787    -0.73530
O1164       O  0.07438574  0.38155107  0.41415363    -0.73580
O1165       O  0.07296842  0.34403796  0.37527328    -0.73520
O1166       O  0.00788353  0.39395543  0.32959002    -0.73490
O1167       O  0.07673202  0.39081153  0.33164849    -0.73470
O1168       O  0.00455529  0.34686329  0.37492825    -0.73530
Ni1169     Ni  0.04096814  0.40767402  0.39328299     1.25410
Ni1170     Ni  0.04029025  0.36767956  0.35144226     1.25360
C1171       C  0.99296563  0.35826967  0.40173334     0.88730
C1172       C  0.09076876  0.41505877  0.34572014     0.88660
C1173       C  0.99610479  0.42018578  0.34202600     0.88690
C1174       C  0.08643176  0.35584235  0.40072739     0.88860
O1175       O  0.87688410  0.34288824  0.49988961    -0.73450
O1176       O  0.82483475  0.38758735  0.56452994    -0.73480
O1177       O  0.82684631  0.38731330  0.49793968    -0.73530
O1178       O  0.87361327  0.34372016  0.56667763    -0.73580
O1179       O  0.91098777  0.38355955  0.56800816    -0.73520
O1180       O  0.86528506  0.42630663  0.49815928    -0.73490
O1181       O  0.86241043  0.42752504  0.56395990    -0.73470
O1182       O  0.91518025  0.38199287  0.50123814    -0.73530
Ni1183     Ni  0.84929515  0.36385428  0.53204375     1.25410
Ni1184     Ni  0.88988661  0.40613532  0.53275187     1.25360
C1185       C  0.90397894  0.35555720  0.48903777     0.88730
C1186       C  0.83607932  0.41446865  0.57570952     0.88660
C1187       C  0.83848657  0.41394298  0.48643739     0.88690
C1188       C  0.89795224  0.35813866  0.58074716     0.88860
O1189       O  0.87479604  0.34998683  0.23866543    -0.73450
O1190       O  0.92701632  0.39525758  0.17525459    -0.73480
O1191       O  0.92307005  0.39564930  0.24202932    -0.73530
O1192       O  0.88073627  0.34988266  0.17227550    -0.73580
O1193       O  0.84215108  0.38888938  0.16893289    -0.73520
O1194       O  0.88320117  0.43360430  0.24097299    -0.73490
O1195       O  0.88830728  0.43433495  0.17476309    -0.73470
O1196       O  0.83515549  0.38808070  0.23532684    -0.73530
Ni1197     Ni  0.90281692  0.37133467  0.20743236     1.25410
Ni1198     Ni  0.86081988  0.41258476  0.20511833     1.25360
C1199       C  0.84648884  0.36183029  0.24776152     0.88730
C1200       C  0.91395590  0.42055689  0.16219237     0.88660
C1201       C  0.90987853  0.42168400  0.25368111     0.88690
C1202       C  0.85647196  0.36337074  0.15713036     0.88860
O1203       O  0.82612359  0.51446426  0.37645713    -0.73450
O1204       O  0.87733246  0.57985897  0.33216989    -0.73480
O1205       O  0.87631696  0.51375513  0.33261232    -0.73530
O1206       O  0.82658441  0.58144471  0.37397924    -0.73580
O1207       O  0.86301967  0.58248129  0.41454172    -0.73520
O1208       O  0.91347639  0.51383184  0.37267947    -0.73490
O1209       O  0.91362914  0.58041013  0.37316523    -0.73470
O1210       O  0.86304517  0.51521202  0.41670037    -0.73530
Ni1211     Ni  0.85017720  0.54721672  0.35250094     1.25410
Ni1212     Ni  0.88947750  0.54779283  0.39585057     1.25360
C1213       C  0.83694108  0.50318605  0.40352460     0.88730
C1214       C  0.90318139  0.59165151  0.34623954     0.88660
C1215       C  0.90311378  0.50264674  0.34535093     0.88690
C1216       C  0.83841090  0.59539107  0.39912226     0.88860
O1217       O  0.91390465  0.26365790  0.37242214    -0.73450
O1218       O  0.86748949  0.19841951  0.32503682    -0.73480
O1219       O  0.86890080  0.26489980  0.32361478    -0.73530
O1220       O  0.91033604  0.19721591  0.37341642    -0.73580
O1221       O  0.86906385  0.20073386  0.40968098    -0.73520
O1222       O  0.82675306  0.26599914  0.35895250    -0.73490
O1223       O  0.82621797  0.19933313  0.36123088    -0.73470
O1224       O  0.87181087  0.26681742  0.40773210    -0.73530
Ni1225     Ni  0.89166050  0.23124740  0.34733840     1.25410
Ni1226     Ni  0.84692320  0.23361014  0.38560535     1.25360
C1227       C  0.90068525  0.27612313  0.39784528     0.88730
C1228       C  0.84129619  0.18565219  0.33728473     0.88660
C1229       C  0.84081250  0.27669738  0.33327298     0.88690
C1230       C  0.89471976  0.18612309  0.39819123     0.88860
O1231       O  0.01003520  0.34071081  0.80325877    -0.79910
O1232       O  0.98514698  0.24729430  0.68370867    -0.64600
O1233       O  0.98271092  0.28856719  0.76582643    -1.11210
C1234       C  0.07069321  0.21990555  0.79375318     1.06970
O1235       O  0.99577440  0.19807572  0.70207164    -0.77810
O1236       O  0.99261167  0.19557691  0.76462437    -0.65390
Ni1237     Ni  0.97687494  0.33509639  0.76923212     1.34870
C1238       C  0.98661305  0.20804276  0.79202452     0.85710
O1239       O  0.94358386  0.28823174  0.71054026    -0.78350
O1240       O  0.94675480  0.33777580  0.73217276    -0.88630
C1241       C  0.97843247  0.21729919  0.68478031     0.85280
O1242       O  0.01209429  0.34383539  0.74134503    -0.66830
O1243       O  0.05936691  0.20043322  0.77230111    -0.86120
C1244       C  0.02100186  0.33206106  0.71445583     0.86110
C1245       C  0.93721362  0.31831430  0.70987006     1.07680
H1246       H  0.04364260  0.25837373  0.72631909     0.39480
O1247       O  0.02496622  0.24949755  0.73820585    -1.08770
O1248       O  0.99909680  0.23485857  0.80161506    -0.65430
Ni1249     Ni  0.02381061  0.26924373  0.77988701     1.26350
O1250       O  0.01023926  0.30472104  0.70363051    -0.65650
O1251       O  0.06471672  0.25016401  0.79300455    -0.77950
C1252       C  0.02901590  0.32115165  0.81849654     0.85500
O1253       O  0.02254184  0.29128642  0.81970496    -0.65120
Ni1254     Ni  0.02854626  0.20283446  0.73606661     1.27450
Ni1255     Ni  0.98436193  0.26938508  0.72385470     1.26060
H1256       H  0.96431879  0.27882983  0.77743484     0.40040
C1257       C  0.03521525  0.18293756  0.07697158     0.04110
C1258       C  0.05030347  0.16869731  0.04949290    -0.12040
C1259       C  0.07858431  0.18285410  0.03510277     0.01610
C1260       C  0.09103868  0.21201841  0.04790478    -0.10570
C1261       C  0.07647490  0.22662539  0.07534177     0.04100
C1262       C  0.04840867  0.21203671  0.08959576    -0.09990
H1263       H  0.04092621  0.14585112  0.04015443     0.09690
H1264       H  0.11307315  0.22276656  0.03713181     0.07220
H1265       H  0.03749419  0.22279560  0.11116179     0.07070
O1266       O  0.12000535  0.26576636  0.07802937    -0.73450
O1267       O  0.17022864  0.33134081  0.12094992    -0.73480
O1268       O  0.16899533  0.26464901  0.12293204    -0.73530
O1269       O  0.12136788  0.33239409  0.07715512    -0.73580
O1270       O  0.08298597  0.33415967  0.11615841    -0.73520
O1271       O  0.13069946  0.26705627  0.16205079    -0.73490
O1272       O  0.13191304  0.33388120  0.16000013    -0.73470
O1273       O  0.08159728  0.26716808  0.11713875    -0.73530
Ni1274     Ni  0.14645920  0.29837259  0.09838627     1.25410
Ni1275     Ni  0.10544230  0.30052067  0.14024739     1.25360
C1276       C  0.09309344  0.25488417  0.09073917     0.88730
C1277       C  0.15844243  0.34485872  0.14646974     0.88660
C1278       C  0.15728938  0.25420872  0.14997393     0.88690
C1279       C  0.09524842  0.34561820  0.08987058     0.88860
C1280       C  0.07789888  0.08572736  0.20874681     0.04110
C1281       C  0.09104707  0.05653822  0.19560781    -0.12040
C1282       C  0.07556655  0.04132337  0.16870393     0.01610
C1283       C  0.04689034  0.05579370  0.15527111    -0.10570
C1284       C  0.03384787  0.08476195  0.16821518     0.04100
C1285       C  0.04902366  0.09895192  0.19519476    -0.09990
H1286       H  0.11375278  0.04628805  0.20563338     0.09690
H1287       H  0.03532383  0.04512402  0.13408901     0.07220
H1288       H  0.03899708  0.12144768  0.20499378     0.07070
C1289       C  0.21703529  0.18371684  0.17053773     0.04110
C1290       C  0.20304437  0.21115643  0.15487284    -0.12040
C1291       C  0.17380941  0.22636134  0.16724800     0.01610
C1292       C  0.15874110  0.21311880  0.19526933    -0.10570
C1293       C  0.17248915  0.18561528  0.21076383     0.04100
C1294       C  0.20200834  0.17208400  0.19879916    -0.09990
H1295       H  0.21422792  0.21996398  0.13267542     0.09690
H1296       H  0.13562250  0.22349963  0.20439585     0.07220
H1297       H  0.21243518  0.15094371  0.21077375     0.07070
O1298       O  0.16674547  0.14172260  0.24856324    -0.73450
O1299       O  0.11813096  0.09519962  0.31395801    -0.73480
O1300       O  0.12137298  0.09294117  0.24781276    -0.73530
O1301       O  0.16431941  0.14125650  0.31453787    -0.73580
O1302       O  0.12384141  0.17853928  0.31437036    -0.73520
O1303       O  0.08202038  0.13133133  0.24495208    -0.73490
O1304       O  0.07790168  0.13257029  0.31040597    -0.73470
O1305       O  0.12720891  0.18006181  0.24795824    -0.73530
Ni1306     Ni  0.14415487  0.11648395  0.28106427     1.25410
Ni1307     Ni  0.10136809  0.15700099  0.27912498     1.25360
C1308       C  0.15482486  0.16856682  0.23734071     0.88730
C1309       C  0.09059281  0.10772151  0.32423683     0.88660
C1310       C  0.09454847  0.10406369  0.23522759     0.88690
C1311       C  0.14985198  0.16580822  0.32754932     0.88860
C1312       C  0.17257010  0.08377790  0.03797973     0.04110
C1313       C  0.15810108  0.05502547  0.05007835    -0.12040
C1314       C  0.17101529  0.03974514  0.07804168     0.01610
C1315       C  0.19872309  0.05360319  0.09369326    -0.10570
C1316       C  0.21332791  0.08231355  0.08210963     0.04100
C1317       C  0.20039407  0.09686153  0.05405292    -0.09990
H1318       H  0.13624356  0.04509239  0.03828747     0.09690
H1319       H  0.20841408  0.04250923  0.11552930     0.07220
H1320       H  0.21137730  0.11923045  0.04533002     0.07070
O1321       O  0.24969120  0.08726685  0.12789330    -0.73450
O1322       O  0.32076467  0.12834858  0.17447581    -0.73480
O1323       O  0.25305003  0.13734194  0.17037811    -0.73530
O1324       O  0.31718312  0.07958106  0.13240051    -0.73580
O1325       O  0.32248297  0.11473786  0.09153807    -0.73520
O1326       O  0.25898941  0.17282518  0.13013337    -0.73490
O1327       O  0.32672959  0.16346227  0.13388674    -0.73470
O1328       O  0.25551517  0.12287710  0.08769934    -0.73530
Ni1329     Ni  0.28470737  0.10700782  0.15283930     1.25410
Ni1330     Ni  0.29110629  0.14481038  0.10945184     1.25360
C1331       C  0.24094962  0.09812439  0.10005747     0.88730
C1332       C  0.33710224  0.15105942  0.16052938     0.88660
C1333       C  0.24474143  0.16409341  0.15643203     0.88690
C1334       C  0.33094283  0.08841327  0.10592063     0.88860
O1335       O  0.08467492  0.14071707  0.99519372    -0.73450
O1336       O  0.13567531  0.09511386  0.93086006    -0.73480
O1337       O  0.13048685  0.09197049  0.99708177    -0.73530
O1338       O  0.09129974  0.14284839  0.92881872    -0.73580
O1339       O  0.13130152  0.18004075  0.93436872    -0.73520
O1340       O  0.17162998  0.12809883  0.00050802    -0.73490
O1341       O  0.17577816  0.13249226  0.93419523    -0.73470
O1342       O  0.12586149  0.17665053  0.00017862    -0.73530
Ni1343     Ni  0.10902977  0.11635177  0.96306248     1.25410
Ni1344     Ni  0.15260165  0.15553670  0.96777343     1.25360
C1345       C  0.09705253  0.16605909  0.00865637     0.88730
C1346       C  0.16217273  0.10840255  0.91968556     0.88660
C1347       C  0.15760268  0.10187743  0.01028627     0.88690
C1348       C  0.10662011  0.16824443  0.91867646     0.88860
O1349       O  0.11733828  0.99968346  0.16461369    -0.73450
O1350       O  0.16316105  0.93215046  0.11857835    -0.73480
O1351       O  0.16537439  0.99873079  0.11900055    -0.73530
O1352       O  0.11451784  0.93316544  0.16285252    -0.73580
O1353       O  0.07665417  0.93429853  0.12329659    -0.73520
O1354       O  0.12679852  0.00068751  0.08025599    -0.73490
O1355       O  0.12533278  0.93384933  0.07922682    -0.73470
O1356       O  0.07857729  0.00133111  0.12601904    -0.73530
Ni1357     Ni  0.14145465  0.96588708  0.14260350     1.25410
Ni1358     Ni  0.10044771  0.96770593  0.10080875     1.25360
C1359       C  0.09094573  0.01243188  0.15256741     0.88730
C1360       C  0.15112147  0.92065393  0.09229316     0.88660
C1361       C  0.15383833  0.01136915  0.09286570     0.88690
C1362       C  0.08805907  0.92191321  0.14942748     0.88860
O1363       O  0.99753244  0.17702363  0.12152871    -0.73450
O1364       O  0.92807685  0.13277742  0.16724334    -0.73480
O1365       O  0.99586084  0.12884770  0.16546150    -0.73530
O1366       O  0.92979884  0.18008959  0.12427465    -0.73580
O1367       O  0.92586463  0.14272343  0.08511854    -0.73520
O1368       O  0.99423125  0.09222362  0.12561153    -0.73490
O1369       O  0.92610325  0.09547327  0.12815326    -0.73470
O1370       O  0.99432902  0.14072232  0.08149491    -0.73530
Ni1371     Ni  0.96321120  0.15593558  0.14601727     1.25410
Ni1372     Ni  0.96029697  0.11646323  0.10358362     1.25360
C1373       C  0.00749633  0.16621603  0.09399136     0.88730
C1374       C  0.91367545  0.10852761  0.15373880     0.88660
C1375       C  0.00635001  0.10243776  0.15240556     0.88690
C1376       C  0.91460905  0.16786664  0.10002482     0.88860
C1377       C  0.10214763  0.21515981  0.88010116     0.24570
C1378       C  0.09843662  0.18185272  0.88653512    -0.23540
C1379       C  0.09115976  0.16063265  0.86073503     0.19480
C1380       C  0.08568443  0.17265066  0.82953780     0.24510
C1381       C  0.08674156  0.20640055  0.82341692    -0.23480
C1382       C  0.09627618  0.22736776  0.84898680     0.19420
F1383       F  0.09867981  0.25997828  0.84438735    -0.13440
F1384       F  0.11043572  0.23613382  0.90420878    -0.15800
F1385       F  0.07764018  0.15116094  0.80580232    -0.15800
F1386       F  0.08982740  0.12797874  0.86555939    -0.13440
C1387       C  0.89410238  0.31977611  0.62841497     0.24570
C1388       C  0.90863917  0.34732853  0.61373358    -0.23540
C1389       C  0.93010724  0.36681805  0.63265003     0.19480
C1390       C  0.93694137  0.35888742  0.66497446     0.24510
C1391       C  0.92277078  0.33114372  0.67935030    -0.23480
C1392       C  0.90120539  0.31177977  0.66067296     0.19420
F1393       F  0.88742299  0.28458397  0.67355094    -0.13440
F1394       F  0.87301464  0.30026963  0.61161494    -0.15800
F1395       F  0.95920036  0.37735406  0.68155776    -0.15800
F1396       F  0.94470723  0.39372226  0.62002116    -0.13440
C1397       C  0.07596827  0.40359229  0.69653015     0.24570
C1398       C  0.07415076  0.40580340  0.66279963    -0.23540
C1399       C  0.05769139  0.38106979  0.64527836     0.19480
C1400       C  0.04233997  0.35510941  0.66164247     0.24510
C1401       C  0.04336021  0.35363518  0.69564401    -0.23480
C1402       C  0.06125305  0.37789343  0.71264726     0.19420
F1403       F  0.06308269  0.37811878  0.74546851    -0.13440
F1404       F  0.09091823  0.42720209  0.71439273    -0.15800
F1405       F  0.02515083  0.33254936  0.64443533    -0.15800
F1406       F  0.05651992  0.38195481  0.61244071    -0.13440
C1407       C  0.92967229  0.17929882  0.68747360     0.24570
C1408       C  0.94609340  0.20516017  0.67160897    -0.23540
C1409       C  0.92888815  0.22171975  0.64692605     0.19480
C1410       C  0.89643817  0.21233338  0.63798225     0.24510
C1411       C  0.88007196  0.18643267  0.65393064    -0.23480
C1412       C  0.89724168  0.17025809  0.67892434     0.19420
F1413       F  0.88279149  0.14541005  0.69535355    -0.13440
F1414       F  0.94436392  0.16329999  0.71246319    -0.15800
F1415       F  0.88140073  0.22838328  0.61325150    -0.15800
F1416       F  0.94350496  0.24695751  0.63128047    -0.13440
C1417       C  0.04651303  0.11245119  0.36728513     0.24570
C1418       C  0.07376299  0.09507921  0.35353945    -0.23540
C1419       C  0.08552732  0.06692134  0.36929603     0.19480
C1420       C  0.06903575  0.05533242  0.39675380     0.24510
C1421       C  0.04084165  0.07171686  0.40891345    -0.23480
C1422       C  0.03026341  0.10074576  0.39469407     0.19420
F1423       F  0.00267991  0.11654500  0.40601110    -0.13440
F1424       F  0.03485804  0.14047175  0.35396862    -0.15800
F1425       F  0.07972069  0.02735859  0.41082572    -0.15800
F1426       F  0.11227347  0.05001953  0.35774140    -0.13440
C1427       C  0.90433468  0.13540689  0.55479426     0.24570
C1428       C  0.88179008  0.11162544  0.56626937    -0.23540
C1429       C  0.89341567  0.07955548  0.57012568     0.19480
C1430       C  0.92681509  0.07166393  0.56393294     0.24510
C1431       C  0.94955616  0.09546029  0.55338884    -0.23480
C1432       C  0.93783768  0.12723148  0.54800498     0.19420
F1433       F  0.95900810  0.15050556  0.53714313    -0.13440
F1434       F  0.89443920  0.16687408  0.55152130    -0.15800
F1435       F  0.93681219  0.04029777  0.56757452    -0.15800
F1436       F  0.87247709  0.05571861  0.58025306    -0.13440
C1437       C  0.11612749  0.93924224  0.56381515     0.24570
C1438       C  0.08295297  0.94206788  0.55347314    -0.23540
C1439       C  0.06192755  0.91455245  0.55449645     0.19480
C1440       C  0.07370048  0.88481830  0.56559150     0.24510
C1441       C  0.10686555  0.88168292  0.57523700    -0.23480
C1442       C  0.12820050  0.90892917  0.57436109     0.19420
F1443       F  0.16032651  0.90631779  0.58458425    -0.13440
F1444       F  0.13675038  0.96534632  0.56308437    -0.15800
F1445       F  0.05275844  0.85892330  0.56664675    -0.15800
F1446       F  0.02954114  0.91649607  0.54488589    -0.13440
C1447       C  0.90169229  0.11445586  0.45492959     0.24570
C1448       C  0.91517947  0.09045783  0.43428214    -0.23540
C1449       C  0.92044612  0.09790413  0.40145235     0.19480
C1450       C  0.91481455  0.12937247  0.39012237     0.24510
C1451       C  0.90351587  0.15396726  0.41130635    -0.23480
C1452       C  0.89591062  0.14595161  0.44357437     0.19420
F1453       F  0.88382825  0.16881320  0.46439485    -0.13440
F1454       F  0.89554977  0.10768736  0.48652066    -0.15800
F1455       F  0.92019080  0.13563929  0.35825339    -0.15800
F1456       F  0.93367466  0.07549124  0.38079051    -0.13440
C1457       C  0.80496476  0.48164246  0.62914687     0.24570
C1458       C  0.79489852  0.46508893  0.65762887    -0.23540
C1459       C  0.79776210  0.43090473  0.65839120     0.19480
C1460       C  0.81009823  0.41389185  0.63123132     0.24510
C1461       C  0.81955803  0.43086796  0.60307960    -0.23480
C1462       C  0.81687054  0.46470907  0.60242972     0.19420
F1463       F  0.82538449  0.48160346  0.57541394    -0.13440
F1464       F  0.80231426  0.51447989  0.62620159    -0.15800
F1465       F  0.81383535  0.38107561  0.63278913    -0.15800
F1466       F  0.78853702  0.41401228  0.68513959    -0.13440
C1467       C  0.70202054  0.43117181  0.64809081     0.24570
C1468       C  0.68214149  0.44757714  0.67119783    -0.23540
C1469       C  0.65530559  0.43097667  0.68535203     0.19480
C1470       C  0.64975304  0.39811783  0.67829516     0.24510
C1471       C  0.67100223  0.38093386  0.65671015    -0.23480
C1472       C  0.69688554  0.39820129  0.64129339     0.19420
F1473       F  0.71746640  0.38332506  0.61957326    -0.13440
F1474       F  0.72752423  0.44659768  0.63295768    -0.15800
F1475       F  0.62340469  0.38331725  0.69276172    -0.15800
F1476       F  0.63488726  0.44642448  0.70682246    -0.13440
C1477       C  0.83826931  0.61576742  0.70701792     0.24570
C1478       C  0.81213072  0.60871805  0.68531014    -0.23540
C1479       C  0.81888997  0.61103533  0.65181471     0.19480
C1480       C  0.85137174  0.61705767  0.64059315     0.24510
C1481       C  0.87799424  0.62098355  0.66247412    -0.23480
C1482       C  0.87085055  0.62137629  0.69581512     0.19420
F1483       F  0.89564582  0.62613410  0.71769823    -0.13440
F1484       F  0.83262713  0.61595353  0.73929625    -0.15800
F1485       F  0.85662510  0.61960571  0.60819247    -0.15800
F1486       F  0.79425612  0.60655838  0.62970552    -0.13440
C1487       C  0.69282314  0.61764530  0.85934772     0.24570
C1488       C  0.66771811  0.59969122  0.87549624    -0.23540
C1489       C  0.65757655  0.56992603  0.86172996     0.19480
C1490       C  0.67459041  0.55680708  0.83511024     0.24510
C1491       C  0.70211927  0.57301524  0.82139716    -0.23480
C1492       C  0.70949493  0.60457782  0.83223865     0.19420
F1493       F  0.73438016  0.62186405  0.81812711    -0.13440
F1494       F  0.70196773  0.64751835  0.87016740    -0.15800
F1495       F  0.66532817  0.52711686  0.82379894    -0.15800
F1496       F  0.63211433  0.55255712  0.87476658    -0.13440
C1497       C  0.11987716  0.34342913  0.80667734     0.24570
C1498       C  0.12964229  0.35202842  0.83807361    -0.23540
C1499       C  0.10595918  0.35007948  0.86351417     0.19480
C1500       C  0.07300742  0.34031087  0.85749490     0.24510
C1501       C  0.06333142  0.33179382  0.82610469    -0.23480
C1502       C  0.08724763  0.33252390  0.80095114     0.19420
F1503       F  0.07911712  0.32179903  0.77088736    -0.13440
F1504       F  0.14210211  0.34469706  0.78182535    -0.15800
F1505       F  0.05062823  0.33924516  0.88222100    -0.15800
F1506       F  0.11445972  0.35874179  0.89416027    -0.13440
C1507       C  0.63518916  0.41447188  0.78676043     0.24570
C1508       C  0.62381380  0.42307898  0.81793267    -0.23540
C1509       C  0.64711096  0.43473845  0.84063864     0.19480
C1510       C  0.68048755  0.43881482  0.83212923     0.24510
C1511       C  0.69156903  0.43239674  0.80025878    -0.23480
C1512       C  0.66876937  0.41889671  0.77811962     0.19420
F1513       F  0.67894343  0.41024527  0.74797963    -0.13440
F1514       F  0.61382073  0.40188166  0.76458212    -0.15800
F1515       F  0.70164409  0.45007525  0.85522571    -0.15800
F1516       F  0.63812108  0.44081454  0.87183897    -0.13440
C1517       C  0.87368320  0.21312007  0.09605405     0.24570
C1518       C  0.88115463  0.18000988  0.09272999    -0.23540
C1519       C  0.85507421  0.15760255  0.08855791     0.19480
C1520       C  0.82224028  0.16842289  0.08501056     0.24510
C1521       C  0.81510679  0.20196635  0.08469105    -0.23480
C1522       C  0.84090565  0.22401726  0.09257636     0.19420
F1523       F  0.83495527  0.25646716  0.09487955    -0.13440
F1524       F  0.89831963  0.23506005  0.10159231    -0.15800
F1525       F  0.79795458  0.14609516  0.07962307    -0.15800
F1526       F  0.86133332  0.12510700  0.08789341    -0.13440
C1527       C  0.70631393  0.18043815  0.90774713     0.24570
C1528       C  0.68279921  0.19750700  0.92693166    -0.23540
C1529       C  0.65246836  0.20712115  0.91289042     0.19480
C1530       C  0.64522502  0.19884602  0.88067684     0.24510
C1531       C  0.66860067  0.18134092  0.86146086    -0.23480
C1532       C  0.69933664  0.17250254  0.87545143     0.19420
F1533       F  0.72284076  0.15628294  0.85785855    -0.13440
F1534       F  0.73678152  0.17245835  0.91991327    -0.15800
F1535       F  0.61464786  0.20688737  0.86884997    -0.15800
F1536       F  0.62944115  0.22380001  0.93064039    -0.13440
C1537       C  0.68429621  0.37599993  0.00732935     0.24570
C1538       C  0.68645275  0.34513954  0.02205187    -0.23540
C1539       C  0.67266880  0.34068696  0.05294742     0.19480
C1540       C  0.65900740  0.36740056  0.06975066     0.24510
C1541       C  0.65920476  0.39863615  0.05573592    -0.23480
C1542       C  0.67067203  0.40247235  0.02399059     0.19420
F1543       F  0.67063439  0.43230471  0.00990527    -0.13440
F1544       F  0.69802432  0.38106669  0.97765471    -0.15800
F1545       F  0.64608577  0.36296234  0.09983569    -0.15800
F1546       F  0.67445655  0.31119198  0.06756287    -0.13440
C1547       C  0.68250360  0.33739588  0.88687377     0.24570
C1548       C  0.68457225  0.31926351  0.91539199    -0.23540
C1549       C  0.65476825  0.31047231  0.93164432     0.19480
C1550       C  0.62390087  0.32163603  0.92105024     0.24510
C1551       C  0.62194417  0.34003078  0.89298559    -0.23480
C1552       C  0.65113376  0.34688263  0.87517744     0.19420
F1553       F  0.64924739  0.36302132  0.84670546    -0.13440
F1554       F  0.71057589  0.34539452  0.87024353    -0.15800
F1555       F  0.59587019  0.31439223  0.93816238    -0.15800
F1556       F  0.65500510  0.29153275  0.95826823    -0.13440
C1557       C  0.86919053  0.33080535  0.10628532     0.24570
C1558       C  0.84702960  0.35096627  0.12426649    -0.23540
C1559       C  0.81750052  0.36166157  0.10906674     0.19480
C1560       C  0.81003516  0.35206490  0.07729681     0.24510
C1561       C  0.83171910  0.33132724  0.05975448    -0.23480
C1562       C  0.86143141  0.32092950  0.07455482     0.19420
F1563       F  0.88287702  0.30098369  0.05834361    -0.13440
F1564       F  0.89874976  0.32091119  0.11910267    -0.15800
F1565       F  0.78039850  0.36160806  0.06434896    -0.15800
F1566       F  0.79529087  0.38092714  0.12513357    -0.13440
C1567       C  0.83070073  0.10891704  0.19870103     0.24570
C1568       C  0.81147264  0.08800615  0.17932378    -0.23540
C1569       C  0.82698108  0.07228329  0.15283268     0.19480
C1570       C  0.86080782  0.07694897  0.14618957     0.24510
C1571       C  0.88005656  0.09833574  0.16518168    -0.23480
C1572       C  0.86454960  0.11407836  0.19173318     0.19420
F1573       F  0.88192142  0.13487317  0.21087089    -0.13440
F1574       F  0.81666332  0.12460448  0.22435166    -0.15800
F1575       F  0.87433612  0.06087136  0.12049024    -0.15800
F1576       F  0.80979637  0.05128041  0.13373031    -0.13440
C1577       C  0.66935656  0.05807110  0.32895114     0.24570
C1578       C  0.69694606  0.07230754  0.31344684    -0.23540
C1579       C  0.70814372  0.10277890  0.32403387     0.19480
C1580       C  0.69557158  0.11621251  0.35278809     0.24510
C1581       C  0.67096266  0.09961043  0.37092201    -0.23480
C1582       C  0.65659074  0.07141201  0.35748650     0.19420
F1583       F  0.63124568  0.05564188  0.37260882    -0.13440
F1584       F  0.65692701  0.02932374  0.31813053    -0.15800
F1585       F  0.70853886  0.14479087  0.36335265    -0.15800
F1586       F  0.73360497  0.11791911  0.30847221    -0.13440
C1587       C  0.66836159  0.92709662  0.14295446     0.24570
C1588       C  0.68619071  0.93027084  0.17189256    -0.23540
C1589       C  0.69564260  0.90191949  0.18894091     0.19480
C1590       C  0.68376998  0.87152432  0.17973494     0.24510
C1591       C  0.66453149  0.86868768  0.15187871    -0.23480
C1592       C  0.65800320  0.89631719  0.13273991     0.19420
F1593       F  0.64118022  0.89349943  0.10439942    -0.13440
F1594       F  0.66074545  0.95364715  0.12487358    -0.15800
F1595       F  0.69196449  0.84478965  0.19733502    -0.15800
F1596       F  0.71763845  0.90331290  0.21375658    -0.13440
C1597       C  0.84277021  0.10440739  0.29327987     0.24570
C1598       C  0.81864765  0.08668548  0.31045416    -0.23540
C1599       C  0.80205573  0.10177531  0.33664776     0.19480
C1600       C  0.80799031  0.13441425  0.34421023     0.24510
C1601       C  0.83124864  0.15267452  0.32620862    -0.23480
C1602       C  0.84891432  0.13697866  0.30087957     0.19420
F1603       F  0.87237718  0.15296706  0.28332428    -0.13440
F1604       F  0.86023519  0.09022235  0.26874146    -0.15800
F1605       F  0.79094816  0.14791694  0.36939652    -0.15800
F1606       F  0.77862324  0.08553265  0.35401940    -0.13440
C1607       C  0.10536903  0.91121528  0.44815469     0.24570
C1608       C  0.12118430  0.92525563  0.42100328    -0.23540
C1609       C  0.10188084  0.94547920  0.40067351     0.19480
C1610       C  0.06802281  0.95091298  0.40673693     0.24510
C1611       C  0.05217448  0.93743590  0.43413118    -0.23480
C1612       C  0.07132042  0.91723339  0.45459984     0.19420
F1613       F  0.05706314  0.90297818  0.48075684    -0.13440
F1614       F  0.12257402  0.89111896  0.46821806    -0.15800
F1615       F  0.05106963  0.97021788  0.38569206    -0.15800
F1616       F  0.11533091  0.95964339  0.37399310    -0.13440
C1617       C  0.64701082  0.91685373  0.34453044     0.24570
C1618       C  0.62130628  0.91260955  0.32168061    -0.23540
C1619       C  0.62934628  0.91274115  0.28876191     0.19480
C1620       C  0.66187841  0.91953150  0.27870104     0.24510
C1621       C  0.68759459  0.92578983  0.30126013    -0.23480
C1622       C  0.67978612  0.92313952  0.33446177     0.19420
F1623       F  0.70362396  0.92776855  0.35735072    -0.13440
F1624       F  0.64054220  0.91443230  0.37673546    -0.15800
F1625       F  0.66702201  0.92230861  0.24669190    -0.15800
F1626       F  0.60530389  0.90786303  0.26611006    -0.13440
C1627       C  0.35194298  0.05821762  0.05918531     0.24570
C1628       C  0.35687922  0.06839688  0.09097854    -0.23540
C1629       C  0.38802490  0.06341870  0.10602102     0.19480
C1630       C  0.41482521  0.05009992  0.08827334     0.24510
C1631       C  0.41036139  0.04197338  0.05549672    -0.23480
C1632       C  0.37813296  0.04479702  0.04171684     0.19420
F1633       F  0.37167323  0.03454595  0.01105794    -0.13440
F1634       F  0.32172467  0.06212220  0.04469365    -0.15800
F1635       F  0.44517000  0.04662506  0.10251771    -0.15800
F1636       F  0.39295786  0.07329538  0.13703416    -0.13440
C1637       C  0.54838716  0.10266528  0.90499250     0.24570
C1638       C  0.56816189  0.08159501  0.92411592    -0.23540
C1639       C  0.59861154  0.07023155  0.91089680     0.19480
C1640       C  0.60840118  0.07874340  0.87940698     0.24510
C1641       C  0.58821662  0.09912180  0.85994483    -0.23480
C1642       C  0.55819107  0.11119990  0.87343171     0.19420
F1643       F  0.53798006  0.13120170  0.85605778    -0.13440
F1644       F  0.51914593  0.11488137  0.91664751    -0.15800
F1645       F  0.63816517  0.06719434  0.86829676    -0.15800
F1646       F  0.61876694  0.04991625  0.92798128    -0.13440
C1647       C  0.56119622  0.91319885  0.04341239     0.24570
C1648       C  0.55449054  0.93627738  0.06795125    -0.23540
C1649       C  0.55470921  0.92623971  0.10030031     0.19480
C1650       C  0.56319333  0.89397419  0.10803919     0.24510
C1651       C  0.57162383  0.87126879  0.08342258    -0.23480
C1652       C  0.57021231  0.88122197  0.05105322     0.19420
F1653       F  0.57742892  0.85995178  0.02677242    -0.13440
F1654       F  0.55827953  0.92144972  0.01177769    -0.15800
F1655       F  0.56521828  0.88553558  0.13974867    -0.15800
F1656       F  0.54777545  0.94782830  0.12434930    -0.13440
C1657       C  0.38656967  0.94174389  0.11043853     0.24570
C1658       C  0.40738012  0.92233704  0.13018161    -0.23540
C1659       C  0.43705067  0.90968134  0.11646980     0.19480
C1660       C  0.44595303  0.91674624  0.08434203     0.24510
C1661       C  0.42542775  0.93665475  0.06474801    -0.23480
C1662       C  0.39533010  0.94862218  0.07827572     0.19420
F1663       F  0.37461315  0.96806717  0.06084098    -0.13440
F1664       F  0.35726439  0.95395570  0.12199362    -0.15800
F1665       F  0.47519773  0.90446722  0.07270795    -0.15800
F1666       F  0.45789155  0.89064935  0.13422532    -0.13440
C1667       C  0.41234042  0.09716514  0.93809968     0.24570
C1668       C  0.43436015  0.07898068  0.91825551    -0.23540
C1669       C  0.44950601  0.09457681  0.89186325     0.19480
C1670       C  0.44218211  0.12733964  0.88498310     0.24510
C1671       C  0.41988910  0.14554087  0.90478537    -0.23480
C1672       C  0.40539180  0.12988696  0.93162036     0.19420
F1673       F  0.38418324  0.14609564  0.95178187    -0.13440
F1674       F  0.39844775  0.08370026  0.96490854    -0.15800
F1675       F  0.45649808  0.14088010  0.85843808    -0.15800
F1676       F  0.47120466  0.07801101  0.87251464    -0.13440
C1677       C  0.04503081  0.84020228  0.16161523     0.24570
C1678       C  0.03981855  0.84057120  0.19534893    -0.23540
C1679       C  0.05047795  0.86836469  0.21309668     0.19480
C1680       C  0.06569247  0.89445067  0.19782929     0.24510
C1681       C  0.07074111  0.89415683  0.16445329    -0.23480
C1682       C  0.06038828  0.86687807  0.14626177     0.19420
F1683       F  0.06596101  0.86571672  0.11383277    -0.13440
F1684       F  0.03542455  0.81423467  0.14358681    -0.15800
F1685       F  0.07458762  0.92075419  0.21579956    -0.15800
F1686       F  0.04534202  0.87133608  0.24551456    -0.13440
C1687       C  0.93690003  0.61299633  0.30136389     0.24570
C1688       C  0.92149577  0.61839729  0.33114159    -0.23540
C1689       C  0.92454166  0.64893440  0.34650655     0.19480
C1690       C  0.94177162  0.67441502  0.33116865     0.24510
C1691       C  0.95639920  0.66921995  0.30061573    -0.23480
C1692       C  0.95476639  0.63772803  0.28660830     0.19420
F1693       F  0.97145701  0.63030204  0.25884234    -0.13440
F1694       F  0.93550578  0.58327129  0.28695857    -0.15800
F1695       F  0.94353138  0.70399899  0.34573003    -0.15800
F1696       F  0.91008784  0.65422570  0.37585135    -0.13440
C1697       C  0.91726803  0.70828852  0.14026952     0.24570
C1698       C  0.93434835  0.69406377  0.16630327    -0.23540
C1699       C  0.91778091  0.66992436  0.18452880     0.19480
C1700       C  0.88530485  0.66006329  0.17685837     0.24510
C1701       C  0.86841919  0.67345333  0.15018875    -0.23480
C1702       C  0.88494114  0.69787481  0.13199027     0.19420
F1703       F  0.87025591  0.71140368  0.10562053    -0.13440
F1704       F  0.93213676  0.73180432  0.12235244    -0.15800
F1705       F  0.87063000  0.63704505  0.19558084    -0.15800
F1706       F  0.93253242  0.65641551  0.21079741    -0.13440
C1707       C  0.08720356  0.80957484  0.30833779     0.24570
C1708       C  0.05923714  0.81343593  0.32895181    -0.23540
C1709       C  0.06297278  0.83049713  0.35809794     0.19480
C1710       C  0.09432211  0.84298560  0.36674230     0.24510
C1711       C  0.12209125  0.83963536  0.34583854    -0.23480
C1712       C  0.11830696  0.82276436  0.31661389     0.19420
F1713       F  0.14469067  0.81901987  0.29617755    -0.13440
F1714       F  0.08402891  0.79410430  0.27943265    -0.15800
F1715       F  0.09739398  0.85914811  0.39523225    -0.15800
F1716       F  0.03630166  0.83535041  0.37793601    -0.13440
C1717       C  0.09274793  0.70738831  0.33712179     0.24570
C1718       C  0.06876574  0.68908014  0.32023599    -0.23540
C1719       C  0.05131808  0.66467321  0.33708234     0.19480
C1720       C  0.05754801  0.65891715  0.36997464     0.24510
C1721       C  0.08228212  0.67664123  0.38665396    -0.23480
C1722       C  0.09941984  0.70130987  0.36975596     0.19420
F1723       F  0.12304846  0.71962013  0.38462131    -0.13440
F1724       F  0.10974183  0.73156159  0.32204235    -0.15800
F1725       F  0.04014353  0.63501208  0.38502796    -0.15800
F1726       F  0.02731262  0.64697365  0.32210590    -0.13440
C1727       C  0.84148986  0.64631143  0.43287364     0.24570
C1728       C  0.82621537  0.62875832  0.40769876    -0.23540
C1729       C  0.80323276  0.64544118  0.38750467     0.19480
C1730       C  0.79632360  0.67869152  0.39215495     0.24510
C1731       C  0.81250534  0.69626426  0.41666288    -0.23480
C1732       C  0.83497505  0.67949939  0.43708665     0.19420
F1733       F  0.85004657  0.69492590  0.46214129    -0.13440
F1734       F  0.86331441  0.63160714  0.45336823    -0.15800
F1735       F  0.77415189  0.69381390  0.37233779    -0.15800
F1736       F  0.78786404  0.62991902  0.36263751    -0.13440
C1737       C  0.66664769  0.80801524  0.39926187     0.24570
C1738       C  0.66437919  0.80000488  0.43223849    -0.23540
C1739       C  0.63301022  0.80271687  0.44806802     0.19480
C1740       C  0.60548771  0.81540283  0.43219028     0.24510
C1741       C  0.60812235  0.82496844  0.40000575    -0.23480
C1742       C  0.63849995  0.82055830  0.38315711     0.19420
F1743       F  0.64135257  0.83013296  0.35183044    -0.13440
F1744       F  0.69611804  0.80498291  0.38315090    -0.15800
F1745       F  0.57611673  0.81878309  0.44848753    -0.15800
F1746       F  0.62856466  0.79280312  0.47914258    -0.13440
C1747       C  0.66002399  0.84698274  0.55832210     0.24570
C1748       C  0.69029899  0.83303808  0.56920271    -0.23540
C1749       C  0.71291066  0.85319636  0.58587015     0.19480
C1750       C  0.70640052  0.88658946  0.58984087     0.24510
C1751       C  0.67687186  0.90076929  0.57754683    -0.23480
C1752       C  0.65351092  0.88023332  0.56229623     0.19420
F1753       F  0.62369425  0.89200992  0.55173319    -0.13440
F1754       F  0.63683676  0.82877156  0.54270178    -0.15800
F1755       F  0.72913769  0.90501034  0.60579992    -0.15800
F1756       F  0.74160244  0.84062368  0.59816734    -0.13440
C1757       C  0.65289646  0.70647815  0.40346135     0.24570
C1758       C  0.68123415  0.69281984  0.41863814    -0.23540
C1759       C  0.69969623  0.66907920  0.40143263     0.19480
C1760       C  0.69070540  0.65991129  0.36983438     0.24510
C1761       C  0.66277230  0.67409649  0.35433153    -0.23480
C1762       C  0.64389363  0.69737805  0.37186021     0.19420
F1763       F  0.61630058  0.71135770  0.35866445    -0.13440
F1764       F  0.63427500  0.72961637  0.41869036    -0.15800
F1765       F  0.70955994  0.63698694  0.35452894    -0.15800
F1766       F  0.72671585  0.65462462  0.41519582    -0.13440
C1767       C  0.83603505  0.72574298  0.58229865     0.24570
C1768       C  0.83927150  0.73345339  0.54931958    -0.23540
C1769       C  0.87126551  0.73198463  0.53466532     0.19480
C1770       C  0.89864760  0.72070891  0.55170868     0.24510
C1771       C  0.89510838  0.71117684  0.58385397    -0.23480
C1772       C  0.86397243  0.71444600  0.59953726     0.19420
F1773       F  0.86019784  0.70460277  0.63068863    -0.13440
F1774       F  0.80586157  0.72776077  0.59729352    -0.15800
F1775       F  0.92867504  0.71810657  0.53643176    -0.15800
F1776       F  0.87648559  0.74210527  0.50377319    -0.13440
C1777       C  0.18334939  0.12232249  0.86459105     0.24570
C1778       C  0.17427867  0.09848451  0.88740860    -0.23540
C1779       C  0.17140188  0.06613903  0.87732515     0.19480
C1780       C  0.17822007  0.05747968  0.84532355     0.24510
C1781       C  0.18771959  0.08105571  0.82218823    -0.23480
C1782       C  0.18982513  0.11375655  0.83230999     0.19420
F1783       F  0.19864065  0.13749084  0.81118287    -0.13440
F1784       F  0.18464390  0.15420914  0.87319694    -0.15800
F1785       F  0.17659579  0.02557145  0.83766070    -0.15800
F1786       F  0.16233357  0.04265420  0.89865808    -0.13440
C1787       C  0.23725968  0.92176105  0.65340311     0.24570
C1788       C  0.21899918  0.94199661  0.67451227    -0.23540
C1789       C  0.18591499  0.93380463  0.68204200     0.19480
C1790       C  0.17268698  0.90409055  0.67195321     0.24510
C1791       C  0.19246674  0.88172154  0.65419127    -0.23480
C1792       C  0.22432354  0.89168690  0.64355907     0.19420
F1793       F  0.24378713  0.87168187  0.62521063    -0.13440
F1794       F  0.26909952  0.92943408  0.64530466    -0.15800
F1795       F  0.14073398  0.89700526  0.68044446    -0.15800
F1796       F  0.16760831  0.95318701  0.70211069    -0.13440
C1797       C  0.38711711  0.07995168  0.67785285     0.24570
C1798       C  0.39007930  0.10716944  0.65809815    -0.23540
C1799       C  0.36118435  0.12310782  0.64675659     0.19480
C1800       C  0.32948623  0.11083758  0.65380254     0.24510
C1801       C  0.32646679  0.08268139  0.67254421    -0.23480
C1802       C  0.35550014  0.06851527  0.68597721     0.19420
F1803       F  0.35332647  0.04487442  0.70858782    -0.13440
F1804       F  0.41476605  0.06489739  0.68973414    -0.15800
F1805       F  0.30189388  0.12639239  0.64246029    -0.15800
F1806       F  0.36368968  0.15030064  0.62848886    -0.13440
C1807       C  0.33935317  0.91725839  0.66523957     0.24570
C1808       C  0.33819264  0.95066249  0.67278688    -0.23540
C1809       C  0.34578215  0.97327417  0.64802089     0.19480
C1810       C  0.35164098  0.96290734  0.61631832     0.24510
C1811       C  0.34990550  0.92986095  0.60849666    -0.23480
C1812       C  0.34490604  0.90700232  0.63337610     0.19420
F1813       F  0.34573336  0.87457942  0.62691851    -0.13440
F1814       F  0.33355753  0.89447462  0.68830850    -0.15800
F1815       F  0.35762693  0.98537637  0.59297397    -0.15800
F1816       F  0.34557337  0.00573362  0.65368635    -0.13440
C1817       C  0.29062075  0.10436212  0.83436189     0.24570
C1818       C  0.30607622  0.08787754  0.80854365    -0.23540
C1819       C  0.33676409  0.09940984  0.79671931     0.19480
C1820       C  0.34959121  0.12900510  0.80755162     0.24510
C1821       C  0.33205237  0.14773552  0.83074731    -0.23480
C1822       C  0.30324084  0.13419865  0.84520948     0.19420
F1823       F  0.28622608  0.15040817  0.86878453    -0.13440
F1824       F  0.26133608  0.09339636  0.84673008    -0.15800
F1825       F  0.37866969  0.13965139  0.79438021    -0.15800
F1826       F  0.35257758  0.08353367  0.77213513    -0.13440
C1827       C  0.04142900  0.42209900  0.07622738     0.24570
C1828       C  0.04952383  0.43015242  0.04406835    -0.23540
C1829       C  0.07455148  0.41159804  0.02826439     0.19480
C1830       C  0.08947325  0.38472325  0.04320052     0.24510
C1831       C  0.07978874  0.37511427  0.07451744    -0.23480
C1832       C  0.05617945  0.39479484  0.09122083     0.19420
F1833       F  0.04685112  0.38744598  0.12196016    -0.13440
F1834       F  0.01767600  0.43931573  0.09248913    -0.15800
F1835       F  0.11256064  0.36737289  0.02615765    -0.15800
F1836       F  0.08362576  0.41841016  0.99737243    -0.13440
C1837       C  0.09291587  0.56201906  0.89663232     0.24570
C1838       C  0.07470336  0.58298365  0.91730840    -0.23540
C1839       C  0.06186326  0.61219887  0.90457610     0.19480
C1840       C  0.06606169  0.61961466  0.87172784     0.24510
C1841       C  0.08362073  0.59813547  0.85092533    -0.23480
C1842       C  0.09671600  0.56913097  0.86390048     0.19420
F1843       F  0.11380762  0.54759012  0.84504072    -0.13440
F1844       F  0.10645597  0.53387902  0.90791180    -0.15800
F1845       F  0.05378997  0.64837443  0.86067964    -0.15800
F1846       F  0.04380656  0.63295627  0.92344899    -0.13440
C1847       C  0.91416922  0.56487341  0.04252800     0.24570
C1848       C  0.93835588  0.56706317  0.06721825    -0.23540
C1849       C  0.92859171  0.57716766  0.09815391     0.19480
C1850       C  0.89521633  0.58584438  0.10408041     0.24510
C1851       C  0.87137776  0.58564397  0.07884930    -0.23480
C1852       C  0.88107657  0.57491416  0.04803175     0.19420
F1853       F  0.85850580  0.57360730  0.02357745    -0.13440
F1854       F  0.92276470  0.55282393  0.01302148    -0.15800
F1855       F  0.88638689  0.59560520  0.13434638    -0.15800
F1856       F  0.95133450  0.57898235  0.12241980    -0.13440
C1857       C  0.07447521  0.45073073  0.88071302     0.24570
C1858       C  0.06492251  0.46108977  0.91161890    -0.23540
C1859       C  0.08911616  0.46286912  0.93634443     0.19480
C1860       C  0.12205901  0.45246207  0.93079099     0.24510
C1861       C  0.13157753  0.44158998  0.89997474    -0.23480
C1862       C  0.10767632  0.44151985  0.87477634     0.19420
F1863       F  0.11615489  0.43107553  0.84461750    -0.13440
F1864       F  0.05163299  0.44901414  0.85652505    -0.15800
F1865       F  0.14463316  0.45337449  0.95526078    -0.15800
F1866       F  0.08064542  0.47457157  0.96602863    -0.13440
C1867       C  0.91395879  0.46708712  0.08391898     0.24570
C1868       C  0.93162195  0.44602908  0.06291404    -0.23540
C1869       C  0.94507136  0.41699351  0.07555215     0.19480
C1870       C  0.94151148  0.40963517  0.10849554     0.24510
C1871       C  0.92456570  0.43125283  0.12955955    -0.23480
C1872       C  0.91117594  0.46020924  0.11676327     0.19420
F1873       F  0.89485355  0.48200733  0.13597533    -0.13440
F1874       F  0.89995740  0.49510138  0.07286166    -0.15800
F1875       F  0.95412151  0.38099409  0.11949036    -0.15800
F1876       F  0.96298354  0.39632979  0.05645396    -0.13440
C1877       C  0.20912338  0.84806558  0.07922870     0.24570
C1878       C  0.20055950  0.83854215  0.04773546    -0.23540
C1879       C  0.17287767  0.85325778  0.03263044     0.19480
C1880       C  0.15617704  0.87932361  0.04734732     0.24510
C1881       C  0.16686714  0.89123624  0.07760026    -0.23480
C1882       C  0.19254703  0.87421990  0.09403943     0.19420
F1883       F  0.20266803  0.88350464  0.12401878    -0.13440
F1884       F  0.23553926  0.83409319  0.09451783    -0.15800
F1885       F  0.13059831  0.89371510  0.03114647    -0.15800
F1886       F  0.16336722  0.84366562  0.00253947    -0.13440
C1887       C  0.18753565  0.70333358  0.85198899     0.24570
C1888       C  0.16744188  0.67594754  0.84975667    -0.23540
C1889       C  0.15607960  0.66036975  0.87791018     0.19480
C1890       C  0.16253617  0.67364565  0.90826608     0.24510
C1891       C  0.18176974  0.70183426  0.91064341    -0.23480
C1892       C  0.19599862  0.71525894  0.88235710     0.19420
F1893       F  0.22088439  0.73743666  0.88417843    -0.13440
F1894       F  0.20017417  0.71745210  0.82493152    -0.15800
F1895       F  0.15075113  0.65864656  0.93521007    -0.15800
F1896       F  0.13895463  0.63218125  0.87599962    -0.13440
C1897       C  0.33067918  0.68095939  0.93569920     0.24570
C1898       C  0.29753221  0.68761496  0.92667659    -0.23540
C1899       C  0.28180894  0.66716474  0.90428855     0.19480
C1900       C  0.29792331  0.63943707  0.89256988     0.24510
C1901       C  0.33040781  0.63136569  0.90307352    -0.23480
C1902       C  0.34712018  0.65312482  0.92391179     0.19420
F1903       F  0.37906140  0.64728305  0.93338426    -0.13440
F1904       F  0.34640305  0.70047389  0.95736267    -0.15800
F1905       F  0.28070313  0.61957161  0.87232293    -0.15800
F1906       F  0.24933877  0.67191263  0.89644907    -0.13440
C1907       C  0.32221273  0.70578777  0.09730427     0.24570
C1908       C  0.30990974  0.69840393  0.06647108    -0.23540
C1909       C  0.33055680  0.68136392  0.04441887     0.19480
C1910       C  0.36275027  0.67180234  0.05288789     0.24510
C1911       C  0.37501442  0.67836277  0.08393816    -0.23480
C1912       C  0.35443192  0.69560397  0.10615940     0.19420
F1913       F  0.36484324  0.70152206  0.13687790    -0.13440
F1914       F  0.30283548  0.72214257  0.11899542    -0.15800
F1915       F  0.38188506  0.65602442  0.03055063    -0.15800
F1916       F  0.31988450  0.67446834  0.01406384    -0.13440
C1917       C  0.31072652  0.85855382  0.08121713     0.24570
C1918       C  0.31956843  0.82703073  0.07058439    -0.23540
C1919       C  0.33202599  0.80459265  0.09341056     0.19480
C1920       C  0.33474566  0.81313313  0.12599442     0.24510
C1921       C  0.32582427  0.84453961  0.13650290    -0.23480
C1922       C  0.31368845  0.86712330  0.11375193     0.19420
F1923       F  0.30606529  0.89815650  0.12257205    -0.13440
F1924       F  0.29859696  0.88119143  0.06035545    -0.15800
F1925       F  0.34663610  0.79071683  0.14722558    -0.15800
F1926       F  0.34156026  0.77418487  0.08433811    -0.13440
C1927       C  0.42402335  0.66993109  0.70314833     0.24570
C1928       C  0.44487663  0.68896538  0.68333865    -0.23540
C1929       C  0.43162106  0.70095955  0.65399068     0.19480
C1930       C  0.39868482  0.69449701  0.64492854     0.24510
C1931       C  0.37798174  0.67474709  0.66423138    -0.23480
C1932       C  0.39109962  0.66273117  0.69365989     0.19420
F1933       F  0.37227266  0.64358046  0.71317071    -0.13440
F1934       F  0.43565476  0.65782814  0.73153207    -0.15800
F1935       F  0.38781676  0.70638678  0.61613699    -0.15800
F1936       F  0.45023808  0.71980166  0.63396045    -0.13440
C1937       C  0.43504576  0.80871654  0.64459809     0.24570
C1938       C  0.46267073  0.82485211  0.65808910    -0.23540
C1939       C  0.47249898  0.85472528  0.64489716     0.19480
C1940       C  0.45740552  0.86636953  0.61651483     0.24510
C1941       C  0.43177918  0.84847851  0.60108875    -0.23480
C1942       C  0.41990544  0.82019178  0.61641520     0.19420
F1943       F  0.39427725  0.80281731  0.60372010    -0.13440
F1944       F  0.42383309  0.78059356  0.65787499    -0.15800
F1945       F  0.46838602  0.89489952  0.60397751    -0.15800
F1946       F  0.49815502  0.87157262  0.65817684    -0.13440
C1947       C  0.39743126  0.65446881  0.80025470     0.24570
C1948       C  0.41708111  0.63702143  0.82277038    -0.23540
C1949       C  0.44330713  0.65359535  0.83848021     0.19480
C1950       C  0.44973574  0.68633529  0.83174610     0.24510
C1951       C  0.43095827  0.70320720  0.80835089    -0.23480
C1952       C  0.40452831  0.68699998  0.79296775     0.19420
F1953       F  0.38577840  0.70261716  0.77040686    -0.13440
F1954       F  0.37104368  0.64029171  0.78531007    -0.15800
F1955       F  0.47555932  0.70101566  0.84709834    -0.15800
F1956       F  0.46301593  0.63824003  0.86045384    -0.13440
C1957       C  0.56101774  0.73723409  0.85468989     0.24570
C1958       C  0.54724813  0.72054488  0.82771450    -0.23540
C1959       C  0.54818013  0.68626505  0.82778696     0.19480
C1960       C  0.56099926  0.66933878  0.85468693     0.24510
C1961       C  0.57312277  0.68637589  0.88191998    -0.23480
C1962       C  0.57337303  0.72038622  0.88130126     0.19420
F1963       F  0.58475152  0.73763257  0.90710531    -0.13440
F1964       F  0.56169322  0.77024966  0.85626973    -0.15800
F1965       F  0.56218332  0.63632809  0.85382784    -0.15800
F1966       F  0.53610470  0.66910672  0.80227751    -0.13440
C1967       C  0.61061846  0.85599572  0.68896802     0.24570
C1968       C  0.58678489  0.83795204  0.67171502    -0.23540
C1969       C  0.57178768  0.85206734  0.64431787     0.19480
C1970       C  0.57848046  0.88433407  0.63590898     0.24510
C1971       C  0.60108700  0.90315281  0.65421758    -0.23480
C1972       C  0.61772685  0.88815336  0.68036968     0.19420
F1973       F  0.64077251  0.90458271  0.69798573    -0.13440
F1974       F  0.62638695  0.84273264  0.71489447    -0.15800
F1975       F  0.56262227  0.89697145  0.60971983    -0.15800
F1976       F  0.54893156  0.83535700  0.62668423    -0.13440
C1977       C  0.15147098  0.20545871  0.41089042     0.24570
C1978       C  0.18026164  0.19121572  0.42469065    -0.23540
C1979       C  0.19873948  0.16872510  0.40617619     0.19480
C1980       C  0.18990359  0.16192561  0.37419282     0.24510
C1981       C  0.16166996  0.17684453  0.35990516    -0.23480
C1982       C  0.14238430  0.19847784  0.37887888     0.19420
F1983       F  0.11452114  0.21287081  0.36667517    -0.13440
F1984       F  0.13274278  0.22733471  0.42779975    -0.15800
F1985       F  0.20920517  0.14046517  0.35736961    -0.15800
F1986       F  0.22576928  0.15338706  0.41897705    -0.13440
C1987       C  0.34644658  0.22908117  0.58097240     0.24570
C1988       C  0.33266370  0.21738885  0.55207384    -0.23540
C1989       C  0.34641784  0.18918637  0.53785441     0.19480
C1990       C  0.37600513  0.17562267  0.54963059     0.24510
C1991       C  0.39237006  0.18968815  0.57637977    -0.23480
C1992       C  0.37631038  0.21573089  0.59282579     0.19420
F1993       F  0.38963279  0.22877811  0.62010277    -0.13440
F1994       F  0.33241955  0.25494537  0.59641921    -0.15640
F1995       F  0.38901014  0.14932513  0.53400623    -0.15800
F1996       F  0.33235939  0.17614409  0.51089795    -0.13440
C1997       C  0.35233438  0.32193878  0.57679675     0.24570
C1998       C  0.32463337  0.33679589  0.56177956    -0.23540
C1999       C  0.30571944  0.35963225  0.57947222     0.19480
C2000       C  0.31267469  0.36570083  0.61204584     0.24510
C2001       C  0.33916152  0.34938387  0.62779049    -0.23480
C2002       C  0.35927919  0.32783813  0.60946657     0.19420
F2003       F  0.38583581  0.31232048  0.62297769    -0.13440
F2004       F  0.37169937  0.30010803  0.56050571    -0.15800
F2005       F  0.29325005  0.38769117  0.62802939    -0.15800
F2006       F  0.27976960  0.37560302  0.56538839    -0.13440
C2007       C  0.16208326  0.30003973  0.40890525     0.24570
C2008       C  0.17543094  0.31071008  0.43836859    -0.23540
C2009       C  0.16223994  0.33891799  0.45304777     0.19480
C2010       C  0.13355863  0.35374870  0.44077417     0.24510
C2011       C  0.11756280  0.34075803  0.41331304    -0.23480
C2012       C  0.13316944  0.31465894  0.39659678     0.19420
F2013       F  0.12001537  0.30240664  0.36887330    -0.13440
F2014       F  0.17519729  0.27366766  0.39352036    -0.15800
F2015       F  0.12091975  0.38005928  0.45665534    -0.15800
F2016       F  0.17575902  0.35064286  0.48086487    -0.13440
C2017       C  0.34821908  0.14873768  0.42465227     0.24570
C2018       C  0.32848956  0.12979892  0.40366079    -0.23540
C2019       C  0.30142351  0.14513364  0.38772818     0.19480
C2020       C  0.29401794  0.17816883  0.39323371     0.24510
C2021       C  0.31356047  0.19677951  0.41454196    -0.23480
C2022       C  0.34111855  0.18164308  0.42970839     0.19420
F2023       F  0.36077866  0.19827776  0.45073028    -0.13440
F2024       F  0.37502049  0.13573708  0.44017286    -0.15800
F2025       F  0.26776595  0.19200460  0.37759813    -0.15800
F2026       F  0.28213971  0.12833337  0.36655026    -0.13440
C2027       C  0.20988965  0.34777015  0.59435141     0.24570
C2028       C  0.18986055  0.32692850  0.57560614    -0.23540
C2029       C  0.15918275  0.33915860  0.56372371     0.19480
C2030       C  0.14963325  0.37146938  0.56912117     0.24510
C2031       C  0.17020541  0.39274287  0.58680709    -0.23480
C2032       C  0.20021721  0.38026288  0.59990722     0.19420
F2033       F  0.22045434  0.39954486  0.61791076    -0.13440
F2034       F  0.23893781  0.33670402  0.60725596    -0.15800
F2035       F  0.11967302  0.38161483  0.55735932    -0.15800
F2036       F  0.13870157  0.32033475  0.54545838    -0.13440
C2037       C  0.21810276  0.41598780  0.15536828     0.24570
C2038       C  0.20848182  0.42846627  0.18552783    -0.23540
C2039       C  0.18048217  0.41561932  0.20137862     0.19480
C2040       C  0.16382089  0.38880729  0.18856382     0.24510
C2041       C  0.17502763  0.37429715  0.15951376    -0.23480
C2042       C  0.20158294  0.38908876  0.14238142     0.19420
F2043       F  0.21245156  0.37703415  0.11355255    -0.13440
F2044       F  0.24515986  0.42819269  0.13974127    -0.15800
F2045       F  0.13767127  0.37637997  0.20542435    -0.15800
F2046       F  0.17062028  0.42789853  0.23044991    -0.13440
C2047       C  0.35499536  0.56547694  0.14267954     0.24570
C2048       C  0.37039269  0.59221854  0.15808558    -0.23540
C2049       C  0.35093460  0.61134296  0.17938531     0.19480
C2050       C  0.31758499  0.60343511  0.18583971     0.24510
C2051       C  0.30261163  0.57586619  0.17147111    -0.23480
C2052       C  0.32171351  0.55734030  0.14940242     0.19420
F2053       F  0.30837432  0.53094558  0.13449843    -0.13440
F2054       F  0.37204010  0.54701281  0.12084477    -0.15800
F2055       F  0.30043860  0.62242644  0.20718546    -0.15800
F2056       F  0.36383751  0.63824964  0.19373446    -0.13440
C2057       C  0.28016867  0.64187878  0.34107479     0.24570
C2058       C  0.31400764  0.64785534  0.33450941    -0.23540
C2059       C  0.33320631  0.62341733  0.31897163     0.19480
C2060       C  0.31819764  0.59454695  0.30838917     0.24510
C2061       C  0.28393293  0.58959878  0.31329674    -0.23480
C2062       C  0.26525317  0.61329894  0.33018620     0.19420
F2063       F  0.23162024  0.61053799  0.33291637    -0.13440
F2064       F  0.26083508  0.66468402  0.35602043    -0.15800
F2065       F  0.33647045  0.57264185  0.29106830    -0.15800
F2066       F  0.36637612  0.62763686  0.31349812    -0.13440
C2067       C  0.17555378  0.45785328  0.34521158     0.24570
C2068       C  0.19394925  0.43924604  0.32259363    -0.23540
C2069       C  0.17761952  0.41288907  0.30740674     0.19480
C2070       C  0.14388544  0.40624101  0.31362913     0.24510
C2071       C  0.12521645  0.42529963  0.33571781    -0.23480
C2072       C  0.14175436  0.45110397  0.35161912     0.19420
F2073       F  0.12542563  0.46983611  0.37375886    -0.13440
F2074       F  0.19030204  0.48256250  0.36149264    -0.15800
F2075       F  0.12980088  0.38055394  0.29816074    -0.15800
F2076       F  0.19395639  0.39363708  0.28570694    -0.13440
C2077       C  0.19330156  0.55615655  0.35476995     0.24570
C2078       C  0.17232865  0.56148467  0.32774373    -0.23540
C2079       C  0.14240049  0.57863251  0.33172591     0.19480
C2080       C  0.13374915  0.59049993  0.36236231     0.24510
C2081       C  0.15579525  0.58686865  0.38866518    -0.23480
C2082       C  0.18542161  0.56944574  0.38483101     0.19420
F2083       F  0.20671513  0.56545633  0.41009525    -0.13440
F2084       F  0.22264058  0.53977964  0.35173198    -0.15800
F2085       F  0.10423305  0.60625051  0.36624443    -0.15800
F2086       F  0.12167090  0.58364657  0.30622926    -0.13440
C2087       C  0.36251803  0.46049674  0.12118840     0.24570
C2088       C  0.34833684  0.43264424  0.10672263    -0.23540
C2089       C  0.32881504  0.41188590  0.12623728     0.19480
C2090       C  0.32253154  0.41943754  0.15864622     0.24510
C2091       C  0.33487760  0.44824988  0.17238008    -0.23480
C2092       C  0.35560868  0.46828597  0.15363857     0.19420
F2093       F  0.36858360  0.49576234  0.16672352    -0.13440
F2094       F  0.38266850  0.48049326  0.10390314    -0.15800
F2095       F  0.30199538  0.39969658  0.17587665    -0.15800
F2096       F  0.31556230  0.38404029  0.11414716    -0.13440
C2097       C  0.91916215  0.15121325  0.81584924     0.24570
C2098       C  0.93590096  0.13198231  0.83911306    -0.23540
C2099       C  0.96675516  0.14305479  0.85136900     0.19480
C2100       C  0.98154361  0.17112161  0.83878101     0.24510
C2101       C  0.96604383  0.18828541  0.81360145    -0.23480
C2102       C  0.93430852  0.17884962  0.80306479     0.19420
F2103       F  0.91888205  0.19538444  0.77884244    -0.13440
F2104       F  0.88848381  0.14295252  0.80459736    -0.15800
F2105       F  0.01233689  0.17993446  0.84923093    -0.15800
F2106       F  0.98341539  0.12612354  0.87451275    -0.13440
C2107       C  0.85379538  0.12983562  0.96576583     0.24570
C2108       C  0.85113627  0.12920701  0.93180996    -0.23540
C2109       C  0.83809000  0.15676030  0.91587153     0.19480
C2110       C  0.82551503  0.18323035  0.93372713     0.24510
C2111       C  0.82595987  0.18267924  0.96771468    -0.23480
C2112       C  0.84112645  0.15623015  0.98347451     0.19420
F2113       F  0.84070959  0.15452484  0.01623772    -0.13440
F2114       F  0.86643038  0.10387803  0.98202856    -0.15800
F2115       F  0.81054482  0.20829137  0.91793755    -0.15800
F2116       F  0.83696573  0.15784189  0.88303042    -0.13440
C2117       C  0.61825905  0.96936040  0.88728247     0.24570
C2118       C  0.64379047  0.95464870  0.90578961    -0.23540
C2119       C  0.63942027  0.95114483  0.93909191     0.19480
C2120       C  0.60984350  0.96052840  0.95373291     0.24510
C2121       C  0.58329980  0.97437357  0.93554467    -0.23480
C2122       C  0.58815670  0.97933047  0.90214216     0.19420
F2123       F  0.56395412  0.99352930  0.88395070    -0.13440
F2124       F  0.62183398  0.97275893  0.85476978    -0.15800
F2125       F  0.60805192  0.95639945  0.98629706    -0.15800
F2126       F  0.66395663  0.93808238  0.95779552    -0.13440
C2127       C  0.62027337  0.88286567  0.78856344     0.24570
C2128       C  0.63076223  0.87426598  0.81997372    -0.23540
C2129       C  0.60671733  0.86201356  0.84167269     0.19480
C2130       C  0.57393068  0.85620393  0.83168784     0.24510
C2131       C  0.56403980  0.86195318  0.79939615    -0.23480
C2132       C  0.58730748  0.87677221  0.77840119     0.19420
F2133       F  0.57836284  0.88475747  0.74776598    -0.13440
F2134       F  0.64210151  0.89642180  0.76738253    -0.15800
F2135       F  0.55237521  0.84341349  0.85362631    -0.15800
F2136       F  0.61470262  0.85586707  0.87302831    -0.13440
C2137       C  0.86318124  0.63303372  0.80746285     0.24570
C2138       C  0.84179858  0.65171457  0.82757193    -0.23540
C2139       C  0.81479014  0.63606646  0.84295166     0.19480
C2140       C  0.80855668  0.60321007  0.83721516     0.24510
C2141       C  0.82813736  0.58561307  0.81491873    -0.23480
C2142       C  0.85636001  0.60028771  0.80130273     0.19420
F2143       F  0.87651111  0.58320181  0.78084490    -0.13440
F2144       F  0.89077857  0.64624323  0.79366181    -0.15800
F2145       F  0.78197386  0.58914825  0.85201846    -0.15800
F2146       F  0.79400523  0.65248582  0.86337128    -0.13440
C2147       C  0.95099660  0.63852890  0.89061834     0.24570
C2148       C  0.92560152  0.65595743  0.90733919    -0.23540
C2149       C  0.91353956  0.64287411  0.93654650     0.19480
C2150       C  0.92810082  0.61502603  0.94989425     0.24510
C2151       C  0.95495134  0.59884127  0.93445628    -0.23480
C2152       C  0.96523254  0.61012107  0.90392345     0.19420
F2153       F  0.99059829  0.59499166  0.88793538    -0.13440
F2154       F  0.96262394  0.64917888  0.86163067    -0.15800
F2155       F  0.91692818  0.60497624  0.97915835    -0.15800
F2156       F  0.88832321  0.65762171  0.95316847    -0.13440
C2157       C  0.96727504  0.93531744  0.63600972     0.24570
C2158       C  0.93235328  0.93840078  0.63748643    -0.23540
C2159       C  0.91492603  0.95138000  0.61081050     0.19480
C2160       C  0.93247597  0.96205242  0.58345862     0.24510
C2161       C  0.96746106  0.96010409  0.58283636    -0.23480
C2162       C  0.98462909  0.94629315  0.60906053     0.19420
F2163       F  0.01856541  0.94502703  0.60924282    -0.13440
F2164       F  0.98480192  0.92268244  0.66119716    -0.15800
F2165       F  0.91556399  0.97566244  0.55841195    -0.15800
F2166       F  0.88103115  0.95330763  0.61105663    -0.13440
C2167       C  0.85893163  0.83193398  0.60824770     0.24570
C2168       C  0.84198877  0.85718627  0.62477813    -0.23540
C2169       C  0.81682805  0.87441990  0.60782605     0.19480
C2170       C  0.80800715  0.86566434  0.57604899     0.24510
C2171       C  0.82405190  0.83959062  0.56016780    -0.23480
C2172       C  0.85042897  0.82364090  0.57637737     0.19420
F2173       F  0.86752251  0.79904599  0.56188167    -0.13440
F2174       F  0.88391793  0.81497158  0.62279643    -0.15800
F2175       F  0.78354804  0.88269332  0.56078523    -0.15800
F2176       F  0.80064102  0.89995478  0.62181601    -0.13440
C2177       C  0.80546354  0.91194554  0.12396249     0.24570
C2178       C  0.83144333  0.92879079  0.10812369    -0.23540
C2179       C  0.84539669  0.95614253  0.12365512     0.19480
C2180       C  0.83158397  0.96800740  0.15246749     0.24510
C2181       C  0.80335024  0.95316153  0.16623562    -0.23480
C2182       C  0.79172660  0.92397892  0.15278904     0.19420
F2183       F  0.76493656  0.90870907  0.16570730    -0.13440
F2184       F  0.79241948  0.88433320  0.11116190    -0.15800
F2185       F  0.84414857  0.99566443  0.16565761    -0.15800
F2186       F  0.87155524  0.97238933  0.11045932    -0.13440
C2187       C  0.89690433  0.81702244  0.12329492     0.24570
C2188       C  0.91358757  0.84387862  0.10956282    -0.23540
C2189       C  0.93674840  0.86088131  0.12890110     0.19480
C2190       C  0.94275023  0.85157394  0.16093975     0.24510
C2191       C  0.92613888  0.82470274  0.17459323    -0.23480
C2192       C  0.90317353  0.80755619  0.15528602     0.19420
F2193       F  0.88681387  0.78133277  0.16730145    -0.13440
F2194       F  0.87425073  0.79980494  0.10592413    -0.15800
F2195       F  0.96601079  0.86825851  0.17807838    -0.15800
F2196       F  0.95357747  0.88691568  0.11708784    -0.13440
C2197       C  0.15318069  0.90985187  0.83864198     0.24570
C2198       C  0.12471091  0.92824769  0.83040645    -0.23540
C2199       C  0.12833689  0.95714934  0.81331405     0.19480
C2200       C  0.16019023  0.96764465  0.80471798     0.24510
C2201       C  0.18902486  0.95144419  0.81621042    -0.23480
C2202       C  0.18519490  0.92171092  0.83227212     0.19420
F2203       F  0.21233790  0.90377464  0.84087977    -0.13440
F2204       F  0.14996658  0.88025878  0.85256351    -0.15800
F2205       F  0.16255265  0.99201340  0.78296482    -0.15800
F2206       F  0.10104709  0.97427129  0.80358518    -0.13440
C2207       C  0.16944707  0.81038335  0.90023668     0.24570
C2208       C  0.19226885  0.83120138  0.91570155    -0.23540
C2209       C  0.18016194  0.86129767  0.92758648     0.19480
C2210       C  0.14638197  0.86980152  0.92448249     0.24510
C2211       C  0.12368289  0.84853195  0.90928242    -0.23480
C2212       C  0.13567999  0.81852297  0.89764590     0.19420
F2213       F  0.11491313  0.79722727  0.88267030    -0.13440
F2214       F  0.17966944  0.78222831  0.88668479    -0.15800
F2215       F  0.13647360  0.89975334  0.93477107    -0.15800
F2216       F  0.20085283  0.88273124  0.94243018    -0.13440
C2217       C  0.41805169  0.19649136  0.16733098     0.24570
C2218       C  0.43841040  0.17453843  0.18459562    -0.23540
C2219       C  0.42384511  0.14648857  0.19771930     0.19480
C2220       C  0.39007044  0.13946844  0.19163403     0.24510
C2221       C  0.37017978  0.16100809  0.17309814    -0.23480
C2222       C  0.38442223  0.19004578  0.16202709     0.19420
F2223       F  0.36587362  0.21225405  0.14553479    -0.13440
F2224       F  0.43037624  0.22497182  0.15614382    -0.15800
F2225       F  0.37739881  0.11095501  0.20260529    -0.15800
F2226       F  0.44251135  0.12547130  0.21550224    -0.13440
C2227       C  0.56938337  0.37204488  0.29886187     0.24570
C2228       C  0.56493423  0.34119332  0.28526612    -0.23540
C2229       C  0.59225499  0.31942515  0.28376139     0.19480
C2230       C  0.62313759  0.32767880  0.29728675     0.24510
C2231       C  0.62751364  0.35835151  0.31136171    -0.23480
C2232       C  0.60069888  0.38081975  0.31118395     0.19420
F2233       F  0.60445496  0.41083993  0.32428244    -0.13440
F2234       F  0.54339196  0.39332901  0.30073625    -0.15800
F2235       F  0.64871541  0.30584807  0.29654539    -0.15800
F2236       F  0.58862807  0.28962805  0.27002158    -0.13440
C2237       C  0.57582035  0.22253717  0.33325665     0.24570
C2238       C  0.54884843  0.20611920  0.31875496    -0.23540
C2239       C  0.53948692  0.17576054  0.33126816     0.19480
C2240       C  0.55485262  0.16351233  0.35934795     0.24510
C2241       C  0.58028468  0.18126370  0.37528612    -0.23480
C2242       C  0.59133491  0.21034909  0.36097194     0.19420
F2243       F  0.61655790  0.22784533  0.37425351    -0.13440
F2244       F  0.58619596  0.25156717  0.32152129    -0.15800
F2245       F  0.54429259  0.13450948  0.37112054    -0.15800
F2246       F  0.51394233  0.15897021  0.31769700    -0.13440
C2247       C  0.56214607  0.33510815  0.13409439     0.24570
C2248       C  0.57638469  0.32293715  0.16285897    -0.23540
C2249       C  0.59467643  0.34435513  0.18263262     0.19480
C2250       C  0.59711746  0.37720830  0.17500198     0.24510
C2251       C  0.58262342  0.38962890  0.14651678    -0.23480
C2252       C  0.56529270  0.36808300  0.12597177     0.19420
F2253       F  0.55182649  0.37866535  0.09771656    -0.13440
F2254       F  0.54396271  0.31552165  0.11442376    -0.15800
F2255       F  0.61385283  0.39687741  0.19582189    -0.15800
F2256       F  0.60939719  0.33373729  0.21028732    -0.13440
C2257       C  0.46568536  0.29876861  0.11094055     0.24570
C2258       C  0.46505584  0.30975162  0.14352523    -0.23540
C2259       C  0.44822844  0.33907092  0.15066887     0.19480
C2260       C  0.43192615  0.35648311  0.12583853     0.24510
C2261       C  0.43243973  0.34484134  0.09367078    -0.23480
C2262       C  0.44942790  0.31599661  0.08654218     0.19420
F2263       F  0.45065086  0.30464737  0.05563302    -0.13440
F2264       F  0.48288285  0.27150836  0.10225297    -0.15800
F2265       F  0.41502242  0.38426298  0.13325167    -0.15800
F2266       F  0.44675405  0.35032497  0.18157165    -0.13440
C2267       C  0.39536533  0.14041808  0.29799237     0.24570
C2268       C  0.41012330  0.12706127  0.32598399    -0.23540
C2269       C  0.43191922  0.14677932  0.34430303     0.19480
C2270       C  0.43921897  0.17856759  0.33451077     0.24510
C2271       C  0.42531789  0.19136066  0.30595036    -0.23480
C2272       C  0.40279817  0.17209468  0.28821546     0.19420
F2273       F  0.38853107  0.18368150  0.26071769    -0.13440
F2274       F  0.37380655  0.12283709  0.27969265    -0.15800
F2275       F  0.46156235  0.19603849  0.35203029    -0.15800
F2276       F  0.44636882  0.13546591  0.37181513    -0.13440
C2277       C  0.60439779  0.44695336  0.39087333     0.24570
C2278       C  0.62532381  0.42618903  0.40871372    -0.23540
C2279       C  0.61240098  0.41174116  0.43712758     0.19480
C2280       C  0.57928580  0.41767794  0.44707520     0.24510
C2281       C  0.55798767  0.43753498  0.42843289    -0.23480
C2282       C  0.57111675  0.45168817  0.39988956     0.19420
F2283       F  0.55204053  0.47089495  0.38051681    -0.13440
F2284       F  0.61567117  0.46213350  0.36381885    -0.15800
F2285       F  0.56814102  0.40380540  0.47485293    -0.15800
F2286       F  0.63179247  0.39180435  0.45542632    -0.13440
C2287       C  0.41946420  0.56794750  0.54355033     0.24570
C2288       C  0.44666143  0.58604771  0.55575191    -0.23540
C2289       C  0.44139405  0.60570346  0.58303019     0.19480
C2290       C  0.40930843  0.60925076  0.59603123     0.24510
C2291       C  0.38161790  0.59428031  0.58144528    -0.23480
C2292       C  0.38692612  0.57313973  0.55536050     0.19420
F2293       F  0.36086124  0.55699727  0.54193443    -0.13440
F2294       F  0.42460107  0.54338111  0.52221585    -0.15800
F2295       F  0.40532811  0.62732538  0.62309890    -0.15800
F2296       F  0.46741333  0.62111704  0.59739277    -0.13440
C2297       C  0.39338631  0.60025540  0.45096726     0.24570
C2298       C  0.41019651  0.57845488  0.43032547    -0.23540
C2299       C  0.41911075  0.58851026  0.39905897     0.19480
C2300       C  0.41389793  0.62067070  0.38956729     0.24510
C2301       C  0.39903308  0.64326186  0.41104488    -0.23480
C2302       C  0.38786410  0.63236249  0.44151290     0.19420
F2303       F  0.37265185  0.65297581  0.46273791    -0.13440
F2304       F  0.38454914  0.59100854  0.48129292    -0.15800
F2305       F  0.42392349  0.62963332  0.35945679    -0.15800
F2306       F  0.43622631  0.56817283  0.37892704    -0.13440
C2307       C  0.47424594  0.45943151  0.61248607     0.24570
C2308       C  0.46121480  0.45756427  0.58075042    -0.23540
C2309       C  0.43097954  0.44107712  0.57580486     0.19480
C2310       C  0.41352279  0.42795240  0.60247410     0.24510
C2311       C  0.42636376  0.43092221  0.63417406    -0.23480
C2312       C  0.45721104  0.44601309  0.63872849     0.19420
F2313       F  0.47051451  0.44846844  0.66886448    -0.13440
F2314       F  0.50366772  0.47476577  0.61817341    -0.15800
F2315       F  0.38426562  0.41217291  0.59740194    -0.15800
F2316       F  0.41783939  0.43875985  0.54563049    -0.13440
C2317       C  0.56708986  0.55366584  0.39427077     0.24570
C2318       C  0.53772500  0.56885814  0.40546566    -0.23540
C2319       C  0.52596577  0.59665825  0.38953166     0.19480
C2320       C  0.54250537  0.60844959  0.36204212     0.24510
C2321       C  0.57125373  0.59241136  0.34959553    -0.23480
C2322       C  0.58374430  0.56524254  0.36668094     0.19420
F2323       F  0.61167643  0.54934024  0.35645736    -0.13440
F2324       F  0.57898450  0.52679380  0.40950522    -0.15800
F2325       F  0.52967315  0.63521815  0.34730479    -0.15800
F2326       F  0.49736650  0.61147324  0.39965939    -0.13440
C2327       C  0.60820966  0.42570665  0.54880318     0.24570
C2328       C  0.57472721  0.43424998  0.55387012    -0.23540
C2329       C  0.55229199  0.41110519  0.56599925     0.19480
C2330       C  0.56324897  0.38015384  0.57416814     0.24510
C2331       C  0.59699675  0.37179627  0.57052026    -0.23480
C2332       C  0.61948183  0.39469174  0.55742373     0.19420
F2333       F  0.65256130  0.38769767  0.55443338    -0.13440
F2334       F  0.62995390  0.44753269  0.53613466    -0.15800
F2335       F  0.54079459  0.35836699  0.58576156    -0.15800
F2336       F  0.51935993  0.41797721  0.56901270    -0.13440
loop_ 
_geom_bond_atom_site_label_1 
_geom_bond_atom_site_label_2 
_geom_bond_distance 
_geom_bond_site_symmetry_2 
_ccdc_geom_bond_type 
O1           Ni7   1.934       .  S
O1           C22   1.268       .  A
O2          Ni25   1.891       .  S
O2           C11   1.268       .  A
O3           Ni7   1.917       .  S
O3          Ni25   1.892       .  S
O3          Ni19   1.914       .  S
O3           H26   0.966       .  S
C4           O21   1.266       .  A
C4           O13   1.276       .  A
C4         C2298   1.459       .  S
O5          Ni24   1.919       .  S
O5           C11   1.268       .  A
O6          Ni24   1.902       .  S
O6            C8   1.268       .  A
Ni7          O10   1.946       .  S
Ni7          O12   1.884       .  S
C8           O18   1.279       .  A
C8         C2318   1.473       .  S
O9          Ni25   1.884       .  S
O9           C15   1.259       .  A
O10          C15   1.274       .  A
C11        C2281   1.495       .  S
O12          C14   1.264       .  A
O13         Ni24   1.925       .  S
C14          O20   1.293       .  A
C14        C2308   1.486       .  S
C15        C2328   1.456       .  S
H16          O17   0.966       .  S
O17         Ni25   1.907       .  S
O17         Ni19   1.886       .  S
O17         Ni24   1.915       .  S
O18         Ni19   1.948       .  S
Ni19         O23   1.868       .  S
Ni19         O21   1.887       .  S
O20         Ni25   1.996       .  S
C22          O23   1.267       .  A
C22        C2288   1.480       .  S
O27         Ni33   1.942       .  S
O27          C48   1.273       .  A
O28         Ni51   1.881       .  S
O28          C37   1.260       .  A
O29         Ni33   1.930       .  S
O29         Ni51   1.893       .  S
O29         Ni45   1.899       .  S
O29          H52   0.967       .  S
C30          O47   1.259       .  A
C30          O39   1.277       .  A
C30        C2271   1.481       .  S
O31         Ni50   1.940       .  S
O31          C37   1.272       .  A
O32         Ni50   1.879       .  S
O32          C34   1.262       .  A
Ni33         O36   1.960       .  S
Ni33         O38   1.877       .  S
C34          O44   1.284       .  A
C34        C2238   1.485       .  S
O35         Ni51   1.874       .  S
O35          C41   1.258       .  A
O36          C41   1.278       .  A
C37        C2228   1.472       .  S
O38          C40   1.260       .  A
O39         Ni50   1.957       .  S
C40          O46   1.283       .  A
C40        C2258   1.492       .  S
C41        C2248   1.482       .  S
H42          O43   0.966       .  S
O43         Ni51   1.907       .  S
O43         Ni45   1.905       .  S
O43         Ni50   1.932       .  S
O44         Ni45   1.978       .  S
Ni45         O49   1.879       .  S
Ni45         O47   1.878       .  S
O46         Ni51   1.985       .  S
C48          O49   1.259       .  A
C48        C2218   1.478       .  S
C53         C143   1.500       .  S
C53          C54   1.411       .  A
C53          C58   1.414       .  A
C54          C55   1.409       .  A
C54          H59   1.083       .  S
C55         C127   1.485       .  S
C55          C56   1.398       .  A
C56          C57   1.402       .  A
C56          H60   1.083       .  S
C57         C155   1.487       .  S
C57          C58   1.415       .  A
C58          H61   1.083       .  S
C62         C157   1.493       .  S
C62          C63   1.412       .  A
C62          C67   1.407       .  A
C63          C64   1.412       .  A
C63          H68   1.083       .  S
C64         C113   1.491       .  S
C64          C65   1.407       .  A
C65          C66   1.405       .  A
C65          H69   1.083       .  S
C66         C169   1.485   1_565  S
C66          C67   1.407       .  A
C67          H70   1.083       .  S
C71         C115   1.483       .  S
C71          C72   1.408       .  A
C71          C76   1.406       .  A
C72          C73   1.406       .  A
C72          H77   1.083       .  S
C73          C99   1.480       .  S
C73          C74   1.403       .  A
C74          C75   1.400       .  A
C74          H78   1.083       .  S
C75         C141   1.479       .  S
C75          C76   1.404       .  A
C76          H79   1.083       .  S
C80         C171   1.496   1_565  S
C80          C81   1.407       .  A
C80          C85   1.415       .  A
C81          C82   1.402       .  A
C81          H86   1.083       .  S
C82         C101   1.486       .  S
C82          C83   1.403       .  A
C83          C84   1.409       .  A
C83          H87   1.083       .  S
C84         C129   1.496       .  S
C84          C85   1.419       .  A
C85          H88   1.083       .  S
O89         Ni97   1.919       .  S
O89          C99   1.281   1_455  A
O90         Ni97   1.911       .  S
O90         C100   1.280       .  A
O91         Ni97   1.916       .  S
O91         C101   1.282   1_455  A
O92         Ni97   1.914       .  S
O92         C102   1.281       .  A
O93         Ni98   1.908       .  S
O93         C102   1.281       .  A
O94         Ni98   1.921       .  S
O94         C101   1.282   1_455  A
O95         Ni98   1.908       .  S
O95         C100   1.278       .  A
O96         Ni98   1.908       .  S
O96          C99   1.281   1_455  A
Ni97        Ni98   2.388       .  S
C100       C2198   1.459       .  S
C102       C2211   1.482       .  S
O103       Ni111   1.923   1_556  S
O103        C113   1.284       .  A
O104       Ni111   1.918       .  S
O104        C114   1.282       .  A
O105       Ni111   1.916   1_556  S
O105        C115   1.281       .  A
O106       Ni111   1.910       .  S
O106        C116   1.280       .  A
O107       Ni112   1.914       .  S
O107        C116   1.282       .  A
O108       Ni112   1.918   1_556  S
O108        C115   1.283       .  A
O109       Ni112   1.916       .  S
O109        C114   1.281       .  A
O110       Ni112   1.924   1_556  S
O110        C113   1.282       .  A
Ni111      Ni112   2.383       .  S
C114       C2188   1.492       .  S
C116       C2178   1.486       .  S
O117       Ni125   1.908       .  S
O117        C127   1.278       .  A
O118       Ni125   1.893       .  S
O118        C128   1.277       .  A
O119       Ni125   1.928       .  S
O119        C129   1.286       .  A
O120       Ni125   1.928       .  S
O120        C130   1.285       .  A
O121       Ni126   1.920       .  S
O121        C130   1.281       .  A
O122       Ni126   1.930       .  S
O122        C129   1.282       .  A
O123       Ni126   1.920       .  S
O123        C128   1.282       .  A
O124       Ni126   1.927       .  S
O124        C127   1.286       .  A
Ni125      Ni126   2.384       .  S
C128       C2158   1.467       .  S
C130       C2168   1.500       .  S
O131       Ni139   1.917       .  S
O131        C141   1.283       .  A
O132       Ni139   1.909       .  S
O132        C142   1.280       .  A
O133       Ni139   1.927       .  S
O133        C143   1.284       .  A
O134       Ni139   1.922       .  S
O134        C144   1.281       .  A
O135       Ni140   1.928       .  S
O135        C144   1.285       .  A
O136       Ni140   1.937       .  S
O136        C143   1.285       .  A
O137       Ni140   1.902       .  S
O137        C142   1.279       .  A
O138       Ni140   1.909       .  S
O138        C141   1.279       .  A
Ni139      Ni140   2.383       .  S
C142       C2138   1.481       .  S
C144       C2148   1.498       .  S
O145       Ni153   1.921       .  S
O145        C155   1.285       .  A
O146       Ni153   1.916       .  S
O146        C156   1.279       .  A
O147       Ni153   1.929       .  S
O147        C157   1.285       .  A
O148       Ni153   1.923       .  S
O148        C158   1.282       .  A
O149       Ni154   1.920       .  S
O149        C158   1.284       .  A
O150       Ni154   1.924       .  S
O150        C157   1.282       .  A
O151       Ni154   1.899       .  S
O151        C156   1.281       .  A
O152       Ni154   1.917       .  S
O152        C155   1.279       .  A
Ni153      Ni154   2.385       .  S
C156       C2118   1.469       .  S
C158       C2128   1.492       .  S
O159       Ni167   1.915       .  S
O159        C169   1.281       .  A
O160       Ni167   1.906       .  S
O160        C170   1.280       .  A
O161       Ni167   1.939       .  S
O161        C171   1.284       .  A
O162       Ni167   1.930       .  S
O162        C172   1.285       .  A
O163       Ni168   1.911       .  S
O163        C172   1.279       .  A
O164       Ni168   1.916       .  S
O164        C171   1.283       .  A
O165       Ni168   1.919       .  S
O165        C170   1.282       .  A
O166       Ni168   1.922       .  S
O166        C169   1.283       .  A
Ni167      Ni168   2.383       .  S
C170       C2098   1.486       .  S
C172       C2108   1.483       .  S
O173       Ni179   1.942       .  S
O173        C194   1.270       .  A
O174       Ni197   1.882       .  S
O174        C183   1.262       .  A
O175       Ni179   1.924       .  S
O175       Ni197   1.901       .  S
O175       Ni191   1.903       .  S
O175        H198   0.966       .  S
C176        O193   1.259       .  A
C176        O185   1.279       .  A
C176       C2078   1.463       .  S
O177       Ni196   1.938       .  S
O177        C183   1.271       .  A
O178       Ni196   1.872       .  S
O178        C180   1.262       .  A
Ni179       O182   1.936       .  S
Ni179       O184   1.879       .  S
C180        O190   1.282       .  A
C180       C2061   1.464       .  S
O181       Ni197   1.895       .  S
O181        C187   1.269       .  A
O182        C187   1.280       .  A
C183       C2051   1.493       .  S
O184        C186   1.263       .  A
O185       Ni196   1.947       .  S
C186        O192   1.274       .  A
C186       C2038   1.459       .  S
C187       C2091   1.474       .  S
H188        O189   0.966       .  S
O189       Ni197   1.909       .  S
O189       Ni191   1.891       .  S
O189       Ni196   1.920       .  S
O190       Ni191   1.962       .  S
Ni191       O195   1.885       .  S
Ni191       O193   1.872       .  S
O192       Ni197   1.940       .  S
C194        O195   1.262       .  A
C194       C2068   1.501       .  S
O199       Ni205   1.925       .  S
O199        C220   1.271       .  A
O200       Ni223   1.891       .  S
O200        C209   1.265       .  A
O201       Ni205   1.922       .  S
O201       Ni223   1.907       .  S
O201       Ni217   1.915       .  S
O201        H224   0.966       .  S
C202        O219   1.261       .  A
C202        O211   1.273       .  A
C202       C1998   1.480       .  S
O203       Ni222   1.929       .  S
O203        C209   1.272       .  A
O204       Ni222   1.876       .  S
O204        C206   1.264       .  A
Ni205       O208   1.944       .  S
Ni205       O210   1.878       .  S
C206        O216   1.284       .  A
C206       C1988   1.474       .  S
O207       Ni223   1.891       .  S
O207        C213   1.262       .  A
O208        C213   1.272       .  A
C209       C2021   1.489       .  S
O210        C212   1.264       .  A
O211       Ni222   1.946       .  S
C212        O218   1.282       .  A
C212       C2008   1.468       .  S
C213       C1978   1.484       .  S
H214        O215   0.966       .  S
O215       Ni223   1.907       .  S
O215       Ni217   1.901       .  S
O215       Ni222   1.919       .  S
O216       Ni217   1.973       .  S
Ni217       O221   1.895       .  S
Ni217       O219   1.887       .  S
O218       Ni223   1.965       .  S
C220        O221   1.267       .  A
C220       C2028   1.493       .  S
O225       Ni231   1.933       .  S
O225        C246   1.272       .  A
O226       Ni249   1.894       .  S
O226        C235   1.266       .  A
O227       Ni231   1.927       .  S
O227       Ni249   1.907       .  S
O227       Ni243   1.908       .  S
O227        H250   0.966       .  S
C228        O245   1.259       .  A
C228        O237   1.276       .  A
C228       C1951   1.482       .  S
O229       Ni248   1.934       .  S
O229        C235   1.274       .  A
O230       Ni248   1.875       .  S
O230        C232   1.259       .  A
Ni231       O234   1.947       .  S
Ni231       O236   1.877       .  S
C232        O242   1.286       .  A
C232       C1958   1.496       .  S
O233       Ni249   1.889       .  S
O233        C239   1.262       .  A
O234        C239   1.275       .  A
C235       C2131   1.498       .  S
O236        C238   1.263       .  A
O237       Ni248   1.961       .  S
C238        O244   1.283       .  A
C238       C1938   1.477       .  S
C239       C1968   1.480       .  S
H240        O241   0.966       .  S
O241       Ni249   1.913       .  S
O241       Ni243   1.906       .  S
O241       Ni248   1.918       .  S
O242       Ni243   1.989       .  S
Ni243       O247   1.888       .  S
Ni243       O245   1.888       .  S
O244       Ni249   1.972       .  S
C246        O247   1.264       .  A
C246       C1928   1.495       .  S
O251       Ni257   1.933       .  S
O251        C272   1.269       .  A
O252       Ni275   1.891       .  S
O252        C261   1.263       .  A
O253       Ni257   1.930       .  S
O253       Ni275   1.904   1_556  S
O253       Ni269   1.905       .  S
O253        H276   0.966       .  S
C254        O271   1.261       .  A
C254        O263   1.271       .  A
C254       C1891   1.459       .  S
O255       Ni274   1.919       .  S
O255        C261   1.267       .  A
O256       Ni274   1.882   1_556  S
O256        C258   1.263       .  A
Ni257       O260   1.936   1_556  S
Ni257       O262   1.884   1_556  S
C258        O268   1.280       .  A
C258       C1898   1.464       .  S
O259       Ni275   1.883       .  S
O259        C265   1.260       .  A
O260        C265   1.272       .  A
C261       C1908   1.474       .  S
O262        C264   1.265       .  A
O263       Ni274   1.927   1_556  S
C264        O270   1.282       .  A
C264       C1878   1.471       .  S
C265       C1918   1.481       .  S
H266        O267   0.966       .  S
O267       Ni275   1.906       .  S
O267       Ni269   1.901   1_554  S
O267       Ni274   1.924       .  S
O268       Ni269   1.960       .  S
Ni269       O273   1.880       .  S
Ni269       O271   1.879       .  S
O270       Ni275   1.965       .  S
C272        O273   1.262       .  A
C272       C2208   1.494       .  S
O277       Ni283   1.943   1_455  S
O277        C298   1.272       .  A
O278       Ni301   1.874       .  S
O278        C287   1.259       .  A
O279       Ni283   1.937       .  S
O279       Ni301   1.892   1_556  S
O279       Ni295   1.900   1_655  S
O279        H302   0.966       .  S
C280        O297   1.257       .  A
C280        O289   1.279       .  A
C280       C1838   1.480       .  S
O281       Ni300   1.945   1_655  S
O281        C287   1.272       .  A
O282       Ni300   1.881   1_656  S
O282        C284   1.262       .  A
Ni283       O286   1.959   1_556  S
Ni283       O288   1.882   1_655  S
C284        O294   1.286       .  A
C284       C2151   1.491       .  S
O285       Ni301   1.869       .  S
O285        C291   1.256       .  A
O286        C291   1.278       .  A
C287       C1848   1.473       .  S
O288        C290   1.263   1_556  A
O289       Ni300   1.960   1_556  S
C290        O296   1.287       .  A
C290       C1828   1.495       .  S
C291       C1868   1.480       .  S
H292        O293   0.967       .  S
O293       Ni301   1.899   1_455  S
O293       Ni295   1.893   1_554  S
O293       Ni300   1.935       .  S
O294       Ni295   1.987   1_655  S
Ni295       O299   1.873       .  S
Ni295       O297   1.869       .  S
O296       Ni301   1.989   1_455  S
C298        O299   1.259       .  A
C298       C1858   1.472       .  S
O303       Ni309   1.923       .  S
O303        C324   1.269       .  A
O304       Ni327   1.878       .  S
O304        C313   1.263       .  A
O305       Ni309   1.923       .  S
O305       Ni327   1.895   1_565  S
O305       Ni321   1.907   1_565  S
O305        H328   0.966       .  S
C306        O323   1.257       .  A
C306        O315   1.272       .  A
C306       C1781   1.491       .  S
O307       Ni326   1.926       .  S
O307        C313   1.270       .  A
O308       Ni326   1.877       .  S
O308        C310   1.263       .  A
Ni309       O312   1.945       .  S
Ni309       O314   1.875       .  S
C310        O320   1.284       .  A
C310       C1818   1.469       .  S
O311       Ni327   1.887   1_565  S
O311        C317   1.259       .  A
O312        C317   1.275       .  A
C313       C1801   1.469       .  S
O314        C316   1.262       .  A
O315       Ni326   1.951       .  S
C316        O322   1.281       .  A
C316       C1788   1.466       .  S
C317       C1808   1.486       .  S
H318        O319   0.966       .  S
O319       Ni327   1.917       .  S
O319       Ni321   1.901       .  S
O319       Ni326   1.931       .  S
O320       Ni321   1.976       .  S
Ni321       O325   1.883   1_545  S
Ni321       O323   1.890       .  S
O322       Ni327   1.967   1_565  S
C324        O325   1.266       .  A
C324       C2201   1.472       .  S
O329       Ni335   1.935       .  S
O329        C350   1.272       .  A
O330       Ni353   1.885       .  S
O330        C339   1.262       .  A
O331       Ni335   1.918       .  S
O331       Ni353   1.926       .  S
O331       Ni347   1.920       .  S
O331        H354   0.968       .  S
C332        O349   1.267       .  A
C332        O341   1.279       .  A
C332       C2171   1.495       .  S
O333       Ni352   1.933       .  S
O333        C339   1.270       .  A
O334       Ni352   1.880       .  S
O334        C336   1.251       .  A
Ni335       O338   1.974       .  S
Ni335       O340   1.878       .  S
C336        O346   1.273       .  A
C336       C1768   1.473       .  S
O337       Ni353   1.897       .  S
O337        C343   1.265       .  A
O338        C343   1.281       .  A
C339       C1731   1.488       .  S
O340        C342   1.249       .  A
O341       Ni352   1.965       .  S
C342        O348   1.276       .  A
C342       C1738   1.477       .  S
C343       C1758   1.499       .  S
H344        O345   0.964       .  S
O345       Ni353   1.918       .  S
O345       Ni347   1.928       .  S
O345       Ni352   1.922       .  S
O346       Ni347   1.969       .  S
Ni347       O351   1.886       .  S
Ni347       O349   1.904       .  S
O348       Ni353   1.980       .  S
C350        O351   1.263       .  A
C350       C1748   1.494       .  S
O355       Ni361   1.938   1_455  S
O355        C376   1.271       .  A
O356       Ni379   1.896       .  S
O356        C365   1.269       .  A
O357       Ni361   1.919       .  S
O357       Ni379   1.921       .  S
O357       Ni373   1.908   1_655  S
O357        H380   0.964       .  S
C358        O375   1.257       .  A
C358        O367   1.277       .  A
C358       C1718   1.484       .  S
O359       Ni378   1.933   1_655  S
O359        C365   1.273       .  A
O360       Ni378   1.874   1_655  S
O360        C362   1.254       .  A
Ni361       O364   1.960       .  S
Ni361       O366   1.874   1_655  S
C362        O372   1.282       .  A
C362       C1691   1.483       .  S
O363       Ni379   1.888       .  S
O363        C369   1.261       .  A
O364        C369   1.277       .  A
C365       C1698   1.492       .  S
O366        C368   1.253       .  A
O367       Ni378   1.970       .  S
C368        O374   1.286       .  A
C368       C1678   1.495       .  S
C369       C2191   1.487       .  S
H370        O371   0.968       .  S
O371       Ni379   1.911   1_455  S
O371       Ni373   1.909       .  S
O371       Ni378   1.921       .  S
O372       Ni373   1.990   1_655  S
Ni373       O377   1.885       .  S
Ni373       O375   1.881       .  S
O374       Ni379   2.000   1_455  S
C376        O377   1.262       .  A
C376       C1708   1.479       .  S
O381       Ni387   1.937   1_565  S
O381        C402   1.271       .  A
O382       Ni405   1.892       .  S
O382        C391   1.264       .  A
O383       Ni387   1.917       .  S
O383       Ni405   1.937   1_554  S
O383       Ni399   1.916   1_545  S
O383        H406   0.966       .  S
C384        O401   1.263       .  A
C384        O393   1.280       .  A
C384       C1661   1.499       .  S
O385       Ni404   1.932   1_545  S
O385        C391   1.272       .  A
O386       Ni404   1.878   1_544  S
O386        C388   1.251       .  A
Ni387       O390   1.976   1_554  S
Ni387       O392   1.871   1_544  S
C388        O398   1.274       .  A
C388       C1631   1.474       .  S
O389       Ni405   1.893       .  S
O389        C395   1.265       .  A
O390        C395   1.283       .  A
C391       C1668   1.487       .  S
O392        C394   1.241       .  A
O393       Ni404   1.970   1_554  S
C394        O400   1.273   1_565  A
C394       C2121   1.486       .  S
C395       C1638   1.501       .  S
H396        O397   0.966       .  S
O397       Ni405   1.917   1_565  S
O397       Ni399   1.927   1_556  S
O397       Ni404   1.921       .  S
O398       Ni399   1.972   1_545  S
Ni399       O403   1.887       .  S
Ni399       O401   1.893       .  S
O400       Ni405   1.989       .  S
C402        O403   1.260       .  A
C402       C1648   1.478       .  S
C407        C428   1.480       .  S
C407        C408   1.404       .  A
C407        C412   1.403       .  A
C408        C409   1.408       .  A
C408        H413   1.083       .  S
C409        C463   1.493       .  S
C409        C410   1.414       .  A
C410        C411   1.414       .  A
C410        H414   1.083       .  S
C411        C523   1.489       .  S
C411        C412   1.400       .  A
C412        H415   1.083       .  S
O416       Ni424   1.919       .  S
O416        C426   1.281       .  A
O417       Ni424   1.913       .  S
O417        C427   1.281       .  A
O418       Ni424   1.921       .  S
O418        C428   1.283       .  A
O419       Ni424   1.911       .  S
O419        C429   1.282       .  A
O420       Ni425   1.898       .  S
O420        C429   1.278       .  A
O421       Ni425   1.904       .  S
O421        C428   1.280       .  A
O422       Ni425   1.914       .  S
O422        C427   1.282       .  A
O423       Ni425   1.918       .  S
O423        C426   1.283       .  A
Ni424      Ni425   2.387       .  S
C426        C476   1.485       .  S
C427       C2058   1.479       .  S
C429       C2301   1.476       .  S
C430        C465   1.480       .  S
C430        C431   1.400       .  A
C430        C435   1.399       .  A
C431        C432   1.405       .  A
C431        H436   1.083       .  S
C432        C451   1.489       .  S
C432        C433   1.414       .  A
C433        C434   1.415       .  A
C433        H437   1.083       .  S
C434        C509   1.490   1_565  S
C434        C435   1.407       .  A
C435        H438   1.083       .  S
O439       Ni447   1.907       .  S
O439        C449   1.280       .  A
O440       Ni447   1.908       .  S
O440        C450   1.280       .  A
O441       Ni447   1.927       .  S
O441        C451   1.282       .  A
O442       Ni447   1.908       .  S
O442        C452   1.281       .  A
O443       Ni448   1.909       .  S
O443        C452   1.277       .  A
O444       Ni448   1.914       .  S
O444        C451   1.283       .  A
O445       Ni448   1.914       .  S
O445        C450   1.281       .  A
O446       Ni448   1.926       .  S
O446        C449   1.283       .  A
Ni447      Ni448   2.389       .  S
C449        C480   1.483       .  S
C450       C1618   1.474       .  S
C452       C1741   1.459       .  S
O453       Ni461   1.924       .  S
O453        C463   1.284       .  A
O454       Ni461   1.924       .  S
O454        C464   1.283       .  A
O455       Ni461   1.908       .  S
O455        C465   1.280       .  A
O456       Ni461   1.898       .  S
O456        C466   1.278       .  A
O457       Ni462   1.909       .  S
O457        C466   1.281       .  A
O458       Ni462   1.919       .  S
O458        C465   1.282       .  A
O459       Ni462   1.924       .  S
O459        C464   1.283       .  A
O460       Ni462   1.929       .  S
O460        C463   1.283       .  A
Ni461      Ni462   2.385       .  S
C464       C1658   1.497       .  S
C466       C1921   1.471       .  S
C467        C525   1.495       .  S
C467        C468   1.410       .  A
C467        C472   1.413       .  A
C468        C469   1.411       .  A
C468        H473   1.083       .  S
C469        C511   1.491   1_565  S
C469        C470   1.407       .  A
C470        C471   1.406       .  A
C470        H474   1.083       .  S
C471        C495   1.493       .  S
C471        C472   1.408       .  A
C472        H475   1.083       .  S
C476        C477   1.407       .  A
C476        C481   1.409       .  A
C477        C478   1.405       .  A
C477        H482   1.083       .  S
C478        C497   1.482       .  S
C478        C479   1.401       .  A
C479        C480   1.405       .  A
C479        H483   1.083       .  S
C480        C481   1.406       .  A
C481        H484   1.083       .  S
O485       Ni493   1.921       .  S
O485        C495   1.283       .  A
O486       Ni493   1.916       .  S
O486        C496   1.281       .  A
O487       Ni493   1.918       .  S
O487        C497   1.283       .  A
O488       Ni493   1.910       .  S
O488        C498   1.280       .  A
O489       Ni494   1.905       .  S
O489        C498   1.279       .  A
O490       Ni494   1.914       .  S
O490        C497   1.280       .  A
O491       Ni494   1.919       .  S
O491        C496   1.283       .  A
O492       Ni494   1.930       .  S
O492        C495   1.284       .  A
Ni493      Ni494   2.386       .  S
C496       C1941   1.491       .  S
C498       C1811   1.469       .  S
O499       Ni507   1.929       .  S
O499        C509   1.282       .  A
O500       Ni507   1.919       .  S
O500        C510   1.284       .  A
O501       Ni507   1.922       .  S
O501        C511   1.283       .  A
O502       Ni507   1.916       .  S
O502        C512   1.281       .  A
O503       Ni508   1.914       .  S
O503        C512   1.281       .  A
O504       Ni508   1.925       .  S
O504        C511   1.282       .  A
O505       Ni508   1.914       .  S
O505        C510   1.280       .  A
O506       Ni508   1.915       .  S
O506        C509   1.283       .  A
Ni507      Ni508   2.382       .  S
C510       C2018   1.493       .  S
C512       C2268   1.489       .  S
O513       Ni521   1.913       .  S
O513        C523   1.278       .  A
O514       Ni521   1.905       .  S
O514        C524   1.280       .  A
O515       Ni521   1.937       .  S
O515        C525   1.286       .  A
O516       Ni521   1.937       .  S
O516        C526   1.286       .  A
O517       Ni522   1.911       .  S
O517        C526   1.278       .  A
O518       Ni522   1.918       .  S
O518        C525   1.281       .  A
O519       Ni522   1.929       .  S
O519        C524   1.284       .  A
O520       Ni522   1.932       .  S
O520        C523   1.288       .  A
Ni521      Ni522   2.384       .  S
C524       C1608   1.494       .  S
C526       C1711   1.479       .  S
O527       Ni533   1.928       .  S
O527        C548   1.270       .  A
O528       Ni551   1.894       .  S
O528        C537   1.265       .  A
O529       Ni533   1.930       .  S
O529       Ni551   1.903   1_545  S
O529       Ni545   1.914       .  S
O529        H552   0.966       .  S
C530        O547   1.264       .  A
C530        O539   1.275       .  A
C530       C1598   1.479       .  S
O531       Ni550   1.927       .  S
O531        C537   1.270       .  A
O532       Ni550   1.876   1_545  S
O532        C534   1.262       .  A
Ni533       O536   1.948   1_545  S
Ni533       O538   1.883       .  S
C534        O544   1.278       .  A
C534       C1578   1.468       .  S
O535       Ni551   1.881       .  S
O535        C541   1.259       .  A
O536        C541   1.271       .  A
C537       C1621   1.494       .  S
O538        C540   1.265   1_545  A
O539       Ni550   1.942   1_545  S
C540        O546   1.284       .  A
C540       C2181   1.472       .  S
C541       C1588   1.472       .  S
H542        O543   0.966       .  S
O543       Ni551   1.904       .  S
O543       Ni545   1.904   1_565  S
O543       Ni550   1.920       .  S
O544       Ni545   1.956       .  S
Ni545       O549   1.880       .  S
Ni545       O547   1.890       .  S
O546       Ni551   1.973       .  S
C548        O549   1.261       .  A
C548       C1568   1.483       .  S
O553       Ni559   1.939   1_556  S
O553        C574   1.270       .  A
O554       Ni577   1.897       .  S
O554        C563   1.264       .  A
O555       Ni559   1.926       .  S
O555       Ni577   1.897       .  S
O555       Ni571   1.883   1_554  S
O555        H578   0.966       .  S
C556        O573   1.255       .  A
C556        O565   1.277       .  A
C556       C1548   1.470       .  S
O557       Ni576   1.941   1_554  S
O557        C563   1.274       .  A
O558       Ni576   1.869   1_554  S
O558        C560   1.259       .  A
Ni559       O562   1.937       .  S
Ni559       O564   1.877   1_554  S
C560        O570   1.282   1_554  A
C560       C1538   1.468       .  S
O561       Ni577   1.875       .  S
O561        C567   1.262       .  A
O562        C567   1.278       .  A
C563       C1561   1.487       .  S
O564        C566   1.261       .  A
O565       Ni576   1.962       .  S
C566        O572   1.280       .  A
C566       C2111   1.469       .  S
C567       C1521   1.477       .  S
H568        O569   0.966       .  S
O569       Ni577   1.907   1_556  S
O569       Ni571   1.908       .  S
O569       Ni576   1.929       .  S
O570       Ni571   1.975       .  S
Ni571       O575   1.888       .  S
Ni571       O573   1.874       .  S
O572       Ni577   1.965   1_556  S
C574        O575   1.260       .  A
C574       C1528   1.483       .  S
C579        C653   1.504       .  S
C579        C580   1.407       .  A
C579        C584   1.411       .  A
C580        C581   1.416       .  A
C580        H585   1.083       .  S
C581        C697   1.494       .  S
C581        C582   1.407       .  A
C582        C583   1.410       .  A
C582        H586   1.083       .  S
C583        C683   1.495       .  S
C583        C584   1.415       .  A
C584        H587   1.083       .  S
C588        C641   1.483       .  S
C588        C589   1.405       .  A
C588        C593   1.406       .  A
C589        C590   1.406       .  A
C589        H594   1.083       .  S
C590        C681   1.488       .  S
C590        C591   1.411       .  A
C591        C592   1.409       .  A
C591        H595   1.083       .  S
C592        C669   1.488       .  S
C592        C593   1.404       .  A
C593        H596   1.083       .  S
C597        C655   1.482       .  S
C597        C598   1.405       .  A
C597        C602   1.395       .  A
C598        C599   1.413       .  A
C598        H603   1.083       .  S
C599        C625   1.488       .  S
C599        C600   1.410       .  A
C600        C601   1.407       .  A
C600        H604   1.083       .  S
C601        C639   1.478       .  S
C601        C602   1.400       .  A
C602        H605   1.083       .  S
C606        C627   1.489       .  S
C606        C607   1.413       .  A
C606        C611   1.408       .  A
C607        C608   1.411       .  A
C607        H612   1.083       .  S
C608        C667   1.502       .  S
C608        C609   1.411       .  A
C609        C610   1.415       .  A
C609        H613   1.083       .  S
C610        C695   1.493       .  S
C610        C611   1.402       .  A
C611        H614   1.083       .  S
O615       Ni623   1.932       .  S
O615        C625   1.285       .  A
O616       Ni623   1.925       .  S
O616        C626   1.283       .  A
O617       Ni623   1.922       .  S
O617        C627   1.282       .  A
O618       Ni623   1.915       .  S
O618        C628   1.281       .  A
O619       Ni624   1.919       .  S
O619        C628   1.282       .  A
O620       Ni624   1.922       .  S
O620        C627   1.284       .  A
O621       Ni624   1.898       .  S
O621        C626   1.278       .  A
O622       Ni624   1.909       .  S
O622        C625   1.280       .  A
Ni623      Ni624   2.383       .  S
C626       C1901   1.483       .  S
C628       C1948   1.493       .  S
O629       Ni637   1.900       .  S
O629        C639   1.281       .  A
O630       Ni637   1.900       .  S
O630        C640   1.276       .  A
O631       Ni637   1.922       .  S
O631        C641   1.283       .  A
O632       Ni637   1.911       .  S
O632        C642   1.280       .  A
O633       Ni638   1.906       .  S
O633        C642   1.281       .  A
O634       Ni638   1.913       .  S
O634        C641   1.281       .  A
O635       Ni638   1.913       .  S
O635        C640   1.281       .  A
O636       Ni638   1.919       .  S
O636        C639   1.280       .  A
Ni637      Ni638   2.390       .  S
C640       C1551   1.455       .  S
C642       C1508   1.479       .  S
O643       Ni651   1.929       .  S
O643        C653   1.283       .  A
O644       Ni651   1.917       .  S
O644        C654   1.280       .  A
O645       Ni651   1.915       .  S
O645        C655   1.284       .  A
O646       Ni651   1.915       .  S
O646        C656   1.282       .  A
O647       Ni652   1.903       .  S
O647        C656   1.279       .  A
O648       Ni652   1.916       .  S
O648        C655   1.279       .  A
O649       Ni652   1.935       .  S
O649        C654   1.284       .  A
O650       Ni652   1.942       .  S
O650        C653   1.287       .  A
Ni651      Ni652   2.384       .  S
C654       C2311   1.478       .  S
C656       C2001   1.486       .  S
O657       Ni665   1.934   1_556  S
O657        C667   1.285       .  A
O658       Ni665   1.923       .  S
O658        C668   1.281       .  A
O659       Ni665   1.925   1_556  S
O659        C669   1.284       .  A
O660       Ni665   1.918       .  S
O660        C670   1.281       .  A
O661       Ni666   1.911       .  S
O661        C670   1.281       .  A
O662       Ni666   1.918   1_556  S
O662        C669   1.281       .  A
O663       Ni666   1.924       .  S
O663        C668   1.282       .  A
O664       Ni666   1.933   1_556  S
O664        C667   1.285       .  A
Ni665      Ni666   2.384       .  S
C668       C2261   1.474       .  S
C670       C2088   1.489       .  S
O671       Ni679   1.924       .  S
O671        C681   1.284       .  A
O672       Ni679   1.918       .  S
O672        C682   1.283       .  A
O673       Ni679   1.920       .  S
O673        C683   1.281       .  A
O674       Ni679   1.914       .  S
O674        C684   1.280       .  A
O675       Ni680   1.927       .  S
O675        C684   1.286       .  A
O676       Ni680   1.935       .  S
O676        C683   1.286       .  A
O677       Ni680   1.910       .  S
O677        C682   1.279       .  A
O678       Ni680   1.917       .  S
O678        C681   1.281       .  A
Ni679      Ni680   2.382       .  S
C682       C1821   1.488       .  S
C684       C1671   1.496       .  S
O685       Ni693   1.905       .  S
O685        C695   1.277       .  A
O686       Ni693   1.898       .  S
O686        C696   1.276       .  A
O687       Ni693   1.949       .  S
O687        C697   1.290       .  A
O688       Ni693   1.943       .  S
O688        C698   1.288       .  A
O689       Ni694   1.894       .  S
O689        C698   1.274       .  A
O690       Ni694   1.901       .  S
O690        C697   1.277       .  A
O691       Ni694   1.944       .  S
O691        C696   1.288       .  A
O692       Ni694   1.946       .  S
O692        C695   1.290       .  A
Ni693      Ni694   2.385       .  S
C696       C1498   1.482       .  S
C698       C1861   1.477       .  S
C699        C718   1.505       .  S
C699        C700   1.410       .  A
C699        C704   1.409       .  A
C700        C701   1.413       .  A
C700        H705   1.083       .  S
C701        C817   1.491       .  S
C701        C702   1.405       .  A
C702        C703   1.407       .  A
C702        H706   1.083       .  S
C703        C801   1.491       .  S
C703        C704   1.420       .  A
C704        H707   1.083       .  S
O708       Ni716   1.948       .  S
O708        C718   1.288       .  A
O709       Ni716   1.938       .  S
O709        C719   1.287       .  A
O710       Ni716   1.928       .  S
O710        C720   1.282       .  A
O711       Ni716   1.924       .  S
O711        C721   1.283       .  A
O712       Ni717   1.929       .  S
O712        C721   1.284       .  A
O713       Ni717   1.929       .  S
O713        C720   1.285       .  A
O714       Ni717   1.910       .  S
O714        C719   1.279       .  A
O715       Ni717   1.922       .  S
O715        C718   1.282       .  A
Ni716      Ni717   2.379       .  S
C719       C2321   1.498       .  S
C720        C742   1.495       .  S
C721       C1761   1.502       .  S
C722        C803   1.497       .  S
C722        C723   1.416       .  A
C722        C727   1.404       .  A
C723        C724   1.412       .  A
C723        H728   1.083       .  S
C724        C787   1.493   1_554  S
C724        C725   1.406       .  A
C725        C726   1.404       .  A
C725        H729   1.083       .  S
C726        C775   1.484       .  S
C726        C727   1.410       .  A
C727        H730   1.083       .  S
C731        C761   1.486       .  S
C731        C732   1.418       .  A
C731        C736   1.403       .  A
C732        C733   1.412       .  A
C732        H737   1.083       .  S
C733        C789   1.497   1_554  S
C733        C734   1.406       .  A
C734        C735   1.407       .  A
C734        H738   1.083       .  S
C735        C815   1.481       .  S
C735        C736   1.398       .  A
C736        H739   1.083       .  S
C740        C773   1.492       .  S
C740        C741   1.413       .  A
C740        C745   1.410       .  A
C741        C742   1.414       .  A
C741        H746   1.083       .  S
C742        C743   1.407       .  A
C743        C744   1.408       .  A
C743        H747   1.083       .  S
C744        C759   1.488       .  S
C744        C745   1.402       .  A
C745        H748   1.083       .  S
O749       Ni757   1.932       .  S
O749        C759   1.286       .  A
O750       Ni757   1.923       .  S
O750        C760   1.286       .  A
O751       Ni757   1.911       .  S
O751        C761   1.278       .  A
O752       Ni757   1.906       .  S
O752        C762   1.279       .  A
O753       Ni758   1.927       .  S
O753        C762   1.285       .  A
O754       Ni758   1.928       .  S
O754        C761   1.287       .  A
O755       Ni758   1.898       .  S
O755        C760   1.275       .  A
O756       Ni758   1.908       .  S
O756        C759   1.279       .  A
Ni757      Ni758   2.384       .  S
C760       C1911   1.479       .  S
C762       C2048   1.493       .  S
O763       Ni771   1.933       .  S
O763        C773   1.284       .  A
O764       Ni771   1.928       .  S
O764        C774   1.284       .  A
O765       Ni771   1.905       .  S
O765        C775   1.278       .  A
O766       Ni771   1.891       .  S
O766        C776   1.277       .  A
O767       Ni772   1.928       .  S
O767        C776   1.284       .  A
O768       Ni772   1.930       .  S
O768        C775   1.286       .  A
O769       Ni772   1.905       .  S
O769        C774   1.277       .  A
O770       Ni772   1.916       .  S
O770        C773   1.282       .  A
Ni771      Ni772   2.385       .  S
C774       C1541   1.468       .  S
C776       C2251   1.483       .  S
O777       Ni785   1.925       .  S
O777        C787   1.282       .  A
O778       Ni785   1.913       .  S
O778        C788   1.282       .  A
O779       Ni785   1.922       .  S
O779        C789   1.284       .  A
O780       Ni785   1.920       .  S
O780        C790   1.281       .  A
O781       Ni786   1.923       .  S
O781        C790   1.284       .  A
O782       Ni786   1.937       .  S
O782        C789   1.284       .  A
O783       Ni786   1.923       .  S
O783        C788   1.281       .  A
O784       Ni786   1.926       .  S
O784        C787   1.284       .  A
Ni785      Ni786   2.383       .  S
C788       C1961   1.480       .  S
C790       C1488   1.494       .  S
O791       Ni799   1.944       .  S
O791        C801   1.289       .  A
O792       Ni799   1.943       .  S
O792        C802   1.288       .  A
O793       Ni799   1.911       .  S
O793        C803   1.278       .  A
O794       Ni799   1.903       .  S
O794        C804   1.276       .  A
O795       Ni800   1.943       .  S
O795        C804   1.290       .  A
O796       Ni800   1.947       .  S
O796        C803   1.290       .  A
O797       Ni800   1.897       .  S
O797        C802   1.275       .  A
O798       Ni800   1.903       .  S
O798        C801   1.276       .  A
Ni799      Ni800   2.383       .  S
C802       C1851   1.478       .  S
C804       C1701   1.499       .  S
O805       Ni813   1.897       .  S
O805        C815   1.276       .  A
O806       Ni813   1.892       .  S
O806        C816   1.274       .  A
O807       Ni813   1.942       .  S
O807        C817   1.288       .  A
O808       Ni813   1.935       .  S
O808        C818   1.287       .  A
O809       Ni814   1.904       .  S
O809        C818   1.277       .  A
O810       Ni814   1.906       .  S
O810        C817   1.278       .  A
O811       Ni814   1.921       .  S
O811        C816   1.283       .  A
O812       Ni814   1.929       .  S
O812        C815   1.286       .  A
Ni813      Ni814   2.388       .  S
C816       C1591   1.456       .  S
C818       C1651   1.483       .  S
O819       Ni825   1.926       .  S
O819        C840   1.270       .  A
O820       Ni843   1.890       .  S
O820        C829   1.264       .  A
O821       Ni825   1.917       .  S
O821       Ni843   1.916       .  S
O821       Ni837   1.915       .  S
O821        H844   0.966       .  S
C822        O839   1.262       .  A
C822        O831   1.270       .  A
C822       C2141   1.468       .  S
O823       Ni842   1.915       .  S
O823        C829   1.268       .  A
O824       Ni842   1.885       .  S
O824        C826   1.266       .  A
Ni825       O828   1.955       .  S
Ni825       O830   1.879       .  S
C826        O836   1.284       .  A
C826       C1491   1.484       .  S
O827       Ni843   1.895       .  S
O827        C833   1.264       .  A
O828        C833   1.275       .  A
C829       C1511   1.486       .  S
O830        C832   1.255       .  A
O831       Ni842   1.932       .  S
C832        O838   1.280       .  A
C832       C1458   1.487       .  S
C833       C1468   1.482       .  S
H834        O835   0.966       .  S
O835       Ni843   1.909       .  S
O835       Ni837   1.905       .  S
O835       Ni842   1.924       .  S
O836       Ni837   1.974       .  S
Ni837       O841   1.899       .  S
Ni837       O839   1.892       .  S
O838       Ni843   1.980       .  S
C840        O841   1.267       .  A
C840       C1478   1.496       .  S
O845       Ni851   1.947   1_655  S
O845        C866   1.274       .  A
O846       Ni869   1.878       .  S
O846        C855   1.261       .  A
O847       Ni851   1.913       .  S
O847       Ni869   1.882   1_545  S
O847       Ni863   1.906   1_455  S
O847        H870   0.966       .  S
C848        O865   1.270       .  A
C848        O857   1.280       .  A
C848       C1448   1.470       .  S
O849       Ni868   1.935   1_465  S
O849        C855   1.270       .  A
O850       Ni868   1.887   1_455  S
O850        C852   1.265       .  A
Ni851       O854   1.951   1_545  S
Ni851       O856   1.877       .  S
C852        O862   1.273       .  A
C852       C1421   1.454       .  S
O853       Ni869   1.873       .  S
O853        C859   1.265       .  A
O854        C859   1.284       .  A
C855       C1611   1.496       .  S
O856        C858   1.264   1_445  A
O857       Ni868   1.931       .  S
C858        O864   1.276       .  A
C858       C2161   1.458       .  S
C859       C1438   1.468       .  S
H860        O861   0.966   1_565  S
O861       Ni869   1.901   1_645  S
O861       Ni863   1.891       .  S
O861       Ni868   1.913       .  S
O862       Ni863   1.929   1_455  S
Ni863       O867   1.879       .  S
Ni863       O865   1.887       .  S
O864       Ni869   1.941   1_655  S
C866        O867   1.261       .  A
C866       C1431   1.482       .  S
C871        C922   1.492       .  S
C871        C872   1.407       .  A
C871        C876   1.409       .  A
C872        C873   1.408       .  A
C872        H877   1.083       .  S
C873        C959   1.490       .  S
C873        C874   1.411       .  A
C874        C875   1.408       .  A
C874        H878   1.083       .  S
C875        C989   1.494       .  S
C875        C876   1.411       .  A
C876        H879   1.083       .  S
C880        C908   1.498       .  S
C880        C881   1.412       .  A
C880        C885   1.414       .  A
C881        C882   1.408       .  A
C881        H886   1.083       .  S
C882        C961   1.492       .  S
C882        C883   1.405       .  A
C883        C884   1.407       .  A
C883        H887   1.083       .  S
C884        C973   1.494       .  S
C884        C885   1.414       .  A
C885        H888   1.083       .  S
C889        C910   1.483       .  S
C889        C890   1.407       .  A
C889        C894   1.411       .  A
C890        C891   1.405       .  A
C890        H895   1.083       .  S
C891        C924   1.480       .  S
C891        C892   1.399       .  A
C892        C893   1.403       .  A
C892        H896   1.083       .  S
C893        C945   1.482       .  S
C893        C894   1.405       .  A
C894        H897   1.083       .  S
O898       Ni906   1.936       .  S
O898        C908   1.285       .  A
O899       Ni906   1.927       .  S
O899        C909   1.285       .  A
O900       Ni906   1.914       .  S
O900        C910   1.280       .  A
O901       Ni906   1.908       .  S
O901        C911   1.279       .  A
O902       Ni907   1.913       .  S
O902        C911   1.282       .  A
O903       Ni907   1.920       .  S
O903        C910   1.283       .  A
O904       Ni907   1.917       .  S
O904        C909   1.280       .  A
O905       Ni907   1.923       .  S
O905        C908   1.283       .  A
Ni906      Ni907   2.382       .  S
C909       C2241   1.496       .  S
C911       C1581   1.485       .  S
O912       Ni920   1.927       .  S
O912        C922   1.284       .  A
O913       Ni920   1.920       .  S
O913        C923   1.283       .  A
O914       Ni920   1.912       .  S
O914        C924   1.279       .  A
O915       Ni920   1.905       .  S
O915        C925   1.278       .  A
O916       Ni921   1.911       .  S
O916        C925   1.279       .  A
O917       Ni921   1.915       .  S
O917        C924   1.283       .  A
O918       Ni921   1.913       .  S
O918        C923   1.280       .  A
O919       Ni921   1.923       .  S
O919        C922   1.283       .  A
Ni920      Ni921   2.387       .  S
C923       C1991   1.490       .  S
C925       C1798   1.457       .  S
C926        C947   1.481       .  S
C926        C927   1.398       .  A
C926        C931   1.403       .  A
C927        C928   1.400       .  A
C927        H932   1.083       .  S
C928        C975   1.497       .  S
C928        C929   1.418       .  A
C929        C930   1.423       .  A
C929        H933   1.083       .  S
C930        C987   1.499       .  S
C930        C931   1.410       .  A
C931        H934   1.083       .  S
O935       Ni943   1.928       .  S
O935        C945   1.283       .  A
O936       Ni943   1.923       .  S
O936        C946   1.284       .  A
O937       Ni943   1.905       .  S
O937        C947   1.281       .  A
O938       Ni943   1.895       .  S
O938        C948   1.276       .  A
O939       Ni944   1.907       .  S
O939        C948   1.282       .  A
O940       Ni944   1.920       .  S
O940        C947   1.281       .  A
O941       Ni944   1.904       .  S
O941        C946   1.279       .  A
O942       Ni944   1.902       .  S
O942        C945   1.280       .  A
Ni943      Ni944   2.386       .  S
C946       C1471   1.491       .  S
C948       C2331   1.464       .  S
O949       Ni957   1.922   1_545  S
O949        C959   1.282       .  A
O950       Ni957   1.916       .  S
O950        C960   1.281       .  A
O951       Ni957   1.924   1_545  S
O951        C961   1.284       .  A
O952       Ni957   1.914       .  S
O952        C962   1.281       .  A
O953       Ni958   1.914       .  S
O953        C962   1.281       .  A
O954       Ni958   1.925   1_545  S
O954        C961   1.282       .  A
O955       Ni958   1.919       .  S
O955        C960   1.283       .  A
O956       Ni958   1.926   1_545  S
O956        C959   1.284       .  A
Ni957      Ni958   2.383       .  S
C960       C1751   1.493       .  S
C962       C1971   1.489       .  S
O963       Ni971   1.926       .  S
O963        C973   1.285       .  A
O964       Ni971   1.922       .  S
O964        C974   1.284       .  A
O965       Ni971   1.932       .  S
O965        C975   1.281       .  A
O966       Ni971   1.918       .  S
O966        C976   1.282       .  A
O967       Ni972   1.921       .  S
O967        C976   1.282       .  A
O968       Ni972   1.922       .  S
O968        C975   1.287       .  A
O969       Ni972   1.917       .  S
O969        C974   1.280       .  A
O970       Ni972   1.929       .  S
O970        C973   1.282       .  A
Ni971      Ni972   2.382       .  S
C974       C1411   1.495       .  S
C976       C1428   1.487       .  S
O977       Ni985   1.929       .  S
O977        C987   1.282       .  A
O978       Ni985   1.920       .  S
O978        C988   1.282       .  A
O979       Ni985   1.936       .  S
O979        C989   1.286       .  A
O980       Ni985   1.932       .  S
O980        C990   1.286       .  A
O981       Ni986   1.909       .  S
O981        C990   1.279       .  A
O982       Ni986   1.917       .  S
O982        C989   1.281       .  A
O983       Ni986   1.931       .  S
O983        C988   1.285       .  A
O984       Ni986   1.933       .  S
O984        C987   1.287       .  A
Ni985      Ni986   2.381       .  S
C988       C1641   1.500       .  S
C990       C1531   1.492       .  S
C991       C1093   1.488       .  S
C991        C992   1.416       .  A
C991        C996   1.407       .  A
C992        C993   1.412       .  A
C992        H997   1.083       .  S
C993       C1079   1.492       .  S
C993        C994   1.401       .  A
C994        C995   1.404       .  A
C994        H998   1.083       .  S
C995       C1010   1.480       .  S
C995        C996   1.400       .  A
C996        H999   1.083       .  S
O1000     Ni1008   1.897       .  S
O1000      C1010   1.278       .  A
O1001     Ni1008   1.890       .  S
O1001      C1011   1.273       .  A
O1002     Ni1008   1.930       .  S
O1002      C1012   1.287       .  A
O1003     Ni1008   1.925       .  S
O1003      C1013   1.284       .  A
O1004     Ni1009   1.907       .  S
O1004      C1013   1.280       .  A
O1005     Ni1009   1.915       .  S
O1005      C1012   1.279       .  A
O1006     Ni1009   1.921       .  S
O1006      C1011   1.283       .  A
O1007     Ni1009   1.927       .  S
O1007      C1010   1.284       .  A
Ni1008    Ni1009   2.387       .  S
C1011      C2081   1.455       .  S
C1012      C1025   1.489       .  S
C1013      C1721   1.491       .  S
C1014      C1095   1.486       .  S
C1014      C1015   1.407       .  A
C1014      C1019   1.407       .  A
C1015      C1016   1.407       .  A
C1015      H1020   1.083       .  S
C1016      C1042   1.483       .  S
C1016      C1017   1.402       .  A
C1017      C1018   1.405       .  A
C1017      H1021   1.083       .  S
C1018      C1109   1.482       .  S
C1018      C1019   1.407       .  A
C1019      H1022   1.083       .  S
C1023      C1044   1.500       .  S
C1023      C1024   1.414       .  A
C1023      C1028   1.414       .  A
C1024      C1025   1.412       .  A
C1024      H1029   1.083       .  S
C1025      C1026   1.399       .  A
C1026      C1027   1.402       .  A
C1026      H1030   1.083       .  S
C1027      C1067   1.487       .  S
C1027      C1028   1.412       .  A
C1028      H1031   1.083       .  S
O1032     Ni1040   1.909       .  S
O1032      C1042   1.279       .  A
O1033     Ni1040   1.912       .  S
O1033      C1043   1.279       .  A
O1034     Ni1040   1.933       .  S
O1034      C1044   1.285       .  A
O1035     Ni1040   1.925       .  S
O1035      C1045   1.285       .  A
O1036     Ni1041   1.922       .  S
O1036      C1045   1.281       .  A
O1037     Ni1041   1.932       .  S
O1037      C1044   1.284       .  A
O1038     Ni1041   1.929       .  S
O1038      C1043   1.283       .  A
O1039     Ni1041   1.925       .  S
O1039      C1042   1.284       .  A
Ni1040    Ni1041   2.384       .  S
C1043      C2291   1.474       .  S
C1045      C1931   1.497       .  S
C1046      C1065   1.495       .  S
C1046      C1047   1.407       .  A
C1046      C1051   1.420       .  A
C1047      C1048   1.395       .  A
C1047      H1052   1.083       .  S
C1048      C1107   1.472       .  S
C1048      C1049   1.390       .  A
C1049      C1050   1.400       .  A
C1049      H1053   1.083       .  S
C1050      C1082   1.488       .  S
C1050      C1051   1.421       .  A
C1051      H1054   1.083       .  S
O1055     Ni1063   1.910       .  S
O1055      C1065   1.283       .  A
O1056     Ni1063   1.912       .  S
O1056      C1066   1.279       .  A
O1057     Ni1063   1.919       .  S
O1057      C1067   1.280       .  A
O1058     Ni1063   1.905       .  S
O1058      C1068   1.281       .  A
O1059     Ni1064   1.915       .  S
O1059      C1068   1.279       .  A
O1060     Ni1064   1.920       .  S
O1060      C1067   1.284       .  A
O1061     Ni1064   1.927       .  S
O1061      C1066   1.286       .  A
O1062     Ni1064   1.941       .  S
O1062      C1065   1.284       .  A
Ni1063    Ni1064   2.384       .  S
C1066      C2031   1.492       .  S
C1068      C1398   1.475       .  S
O1069     Ni1077   1.923       .  S
O1069      C1079   1.285   1_655  A
O1070     Ni1077   1.927       .  S
O1070      C1080   1.285       .  A
O1071     Ni1077   1.897       .  S
O1071      C1081   1.278       .  A
O1072     Ni1077   1.921       .  S
O1072      C1082   1.278   1_655  A
O1073     Ni1078   1.913       .  S
O1073      C1082   1.286   1_655  A
O1074     Ni1078   1.913       .  S
O1074      C1081   1.279       .  A
O1075     Ni1078   1.913       .  S
O1075      C1080   1.280       .  A
O1076     Ni1078   1.926   1_455  S
O1076      C1079   1.281       .  A
Ni1077    Ni1078   2.387       .  S
C1080      C1481   1.485       .  S
C1081      C1771   1.455       .  S
O1083     Ni1091   1.925       .  S
O1083      C1093   1.285       .  A
O1084     Ni1091   1.917       .  S
O1084      C1094   1.281       .  A
O1085     Ni1091   1.917       .  S
O1085      C1095   1.282       .  A
O1086     Ni1091   1.907       .  S
O1086      C1096   1.278       .  A
O1087     Ni1092   1.911       .  S
O1087      C1096   1.281       .  A
O1088     Ni1092   1.921       .  S
O1088      C1095   1.283       .  A
O1089     Ni1092   1.913       .  S
O1089      C1094   1.282       .  A
O1090     Ni1092   1.918       .  S
O1090      C1093   1.280       .  A
Ni1091    Ni1092   2.387       .  S
C1094      C1791   1.487       .  S
C1096      C1441   1.460       .  S
O1097     Ni1105   1.904       .  S
O1097      C1107   1.281       .  A
O1098     Ni1105   1.898       .  S
O1098      C1108   1.277       .  A
O1099     Ni1105   1.919       .  S
O1099      C1109   1.282       .  A
O1100     Ni1105   1.915       .  S
O1100      C1110   1.281       .  A
O1101     Ni1106   1.903       .  S
O1101      C1110   1.280       .  A
O1102     Ni1106   1.913       .  S
O1102      C1109   1.282       .  A
O1103     Ni1106   1.903       .  S
O1103      C1108   1.277       .  A
O1104     Ni1106   1.906       .  S
O1104      C1107   1.279       .  A
Ni1105    Ni1106   2.390       .  S
C1108      C1888   1.446       .  S
C1110      C1841   1.482       .  S
C1111      C1130   1.492       .  S
C1111      C1112   1.407       .  A
C1111      C1116   1.408       .  A
C1112      C1113   1.415       .  A
C1112      H1117   1.083       .  S
C1113      C1199   1.481       .  S
C1113      C1114   1.404       .  A
C1114      C1115   1.399       .  A
C1114      H1118   1.083       .  S
C1115      C1229   1.482       .  S
C1115      C1116   1.404       .  A
C1116      H1119   1.083       .  S
O1120     Ni1128   1.943       .  S
O1120      C1130   1.287       .  A
O1121     Ni1128   1.932       .  S
O1121      C1131   1.287       .  A
O1122     Ni1128   1.902       .  S
O1122      C1132   1.279       .  A
O1123     Ni1128   1.901       .  S
O1123      C1133   1.276       .  A
O1124     Ni1129   1.939       .  S
O1124      C1133   1.287       .  A
O1125     Ni1129   1.943       .  S
O1125      C1132   1.287       .  A
O1126     Ni1129   1.905       .  S
O1126      C1131   1.277       .  A
O1127     Ni1129   1.905       .  S
O1127      C1130   1.279       .  A
Ni1128    Ni1129   2.384       .  S
C1131      C2278   1.489       .  S
C1132      C1136   1.491       .  S
C1133      C2231   1.476       .  S
C1134      C1187   1.493       .  S
C1134      C1135   1.414       .  A
C1134      C1139   1.411       .  A
C1135      C1136   1.410       .  A
C1135      H1140   1.083       .  S
C1136      C1137   1.410       .  A
C1137      C1138   1.401       .  A
C1137      H1141   1.083       .  S
C1138      C1213   1.492       .  S
C1138      C1139   1.408       .  A
C1139      H1142   1.083       .  S
C1143      C1215   1.489       .  S
C1143      C1144   1.405       .  A
C1143      C1148   1.414       .  A
C1144      C1145   1.406       .  A
C1144      H1149   1.083       .  S
C1145      C1173   1.488       .  S
C1145      C1146   1.411       .  A
C1146      C1147   1.409       .  A
C1146      H1150   1.083       .  S
C1147      C1201   1.498       .  S
C1147      C1148   1.407       .  A
C1148      H1151   1.083       .  S
C1152      C1185   1.488       .  S
C1152      C1153   1.414       .  A
C1152      C1157   1.404       .  A
C1153      C1154   1.414       .  A
C1153      H1158   1.083       .  S
C1154      C1171   1.495       .  S
C1154      C1155   1.407       .  A
C1155      C1156   1.408       .  A
C1155      H1159   1.083       .  S
C1156      C1227   1.483       .  S
C1156      C1157   1.401       .  A
C1157      H1160   1.083       .  S
O1161     Ni1169   1.927       .  S
O1161      C1171   1.282   1_455  A
O1162     Ni1169   1.921       .  S
O1162      C1172   1.282       .  A
O1163     Ni1169   1.928       .  S
O1163      C1173   1.285   1_455  A
O1164     Ni1169   1.918       .  S
O1164      C1174   1.283       .  A
O1165     Ni1170   1.902       .  S
O1165      C1174   1.278       .  A
O1166     Ni1170   1.912       .  S
O1166      C1173   1.280   1_455  A
O1167     Ni1170   1.926       .  S
O1167      C1172   1.285       .  A
O1168     Ni1170   1.930       .  S
O1168      C1171   1.285   1_455  A
Ni1169    Ni1170   2.382       .  S
C1172      C2071   1.500       .  S
C1174      C2011   1.484       .  S
O1175     Ni1183   1.924       .  S
O1175      C1185   1.285       .  A
O1176     Ni1183   1.920       .  S
O1176      C1186   1.280       .  A
O1177     Ni1183   1.930       .  S
O1177      C1187   1.283       .  A
O1178     Ni1183   1.919       .  S
O1178      C1188   1.282       .  A
O1179     Ni1184   1.923       .  S
O1179      C1188   1.283       .  A
O1180     Ni1184   1.924       .  S
O1180      C1187   1.284       .  A
O1181     Ni1184   1.902       .  S
O1181      C1186   1.280       .  A
O1182     Ni1184   1.918       .  S
O1182      C1185   1.280       .  A
Ni1183    Ni1184   2.384       .  S
C1186      C1461   1.468       .  S
C1188      C1388   1.496       .  S
O1189     Ni1197   1.923       .  S
O1189      C1199   1.285       .  A
O1190     Ni1197   1.918       .  S
O1190      C1200   1.282       .  A
O1191     Ni1197   1.924       .  S
O1191      C1201   1.283       .  A
O1192     Ni1197   1.916       .  S
O1192      C1202   1.281       .  A
O1193     Ni1198   1.935       .  S
O1193      C1202   1.287       .  A
O1194     Ni1198   1.936       .  S
O1194      C1201   1.286       .  A
O1195     Ni1198   1.894       .  S
O1195      C1200   1.278       .  A
O1196     Ni1198   1.907       .  S
O1196      C1199   1.277       .  A
Ni1197    Ni1198   2.383       .  S
C1200      C1871   1.480       .  S
C1202      C1558   1.498       .  S
O1203     Ni1211   1.932       .  S
O1203      C1213   1.286       .  A
O1204     Ni1211   1.924       .  S
O1204      C1214   1.284       .  A
O1205     Ni1211   1.906       .  S
O1205      C1215   1.278       .  A
O1206     Ni1211   1.906       .  S
O1206      C1216   1.278       .  A
O1207     Ni1212   1.929       .  S
O1207      C1216   1.287       .  A
O1208     Ni1212   1.939       .  S
O1208      C1215   1.288       .  A
O1209     Ni1212   1.903       .  S
O1209      C1214   1.276       .  A
O1210     Ni1212   1.915       .  S
O1210      C1213   1.280       .  A
Ni1211    Ni1212   2.385       .  S
C1214      C1688   1.464       .  S
C1216      C1728   1.494       .  S
O1217     Ni1225   1.910       .  S
O1217      C1227   1.279       .  A
O1218     Ni1225   1.901       .  S
O1218      C1228   1.278       .  A
O1219     Ni1225   1.923       .  S
O1219      C1229   1.284       .  A
O1220     Ni1225   1.917       .  S
O1220      C1230   1.283       .  A
O1221     Ni1226   1.897       .  S
O1221      C1230   1.276       .  A
O1222     Ni1226   1.907       .  S
O1222      C1229   1.279       .  A
O1223     Ni1226   1.921       .  S
O1223      C1228   1.284       .  A
O1224     Ni1226   1.924       .  S
O1224      C1227   1.285       .  A
Ni1225    Ni1226   2.386       .  S
C1228      C1601   1.487       .  S
C1230      C1451   1.471       .  S
O1231     Ni1237   1.949   1_455  S
O1231      C1252   1.272       .  A
O1232     Ni1255   1.888       .  S
O1232      C1241   1.264       .  A
O1233     Ni1237   1.930       .  S
O1233     Ni1255   1.903       .  S
O1233     Ni1249   1.914   1_655  S
O1233      H1256   0.966       .  S
C1234      O1251   1.265       .  A
C1234      O1243   1.278       .  A
C1234      C1381   1.491       .  S
O1235     Ni1254   1.933   1_655  S
O1235      C1241   1.271       .  A
O1236     Ni1254   1.883   1_655  S
O1236      C1238   1.263       .  A
Ni1237     O1240   1.953       .  S
Ni1237     O1242   1.855   1_655  S
C1238      O1248   1.275       .  A
C1238      C2101   1.462       .  S
O1239     Ni1255   1.886       .  S
O1239      C1245   1.261       .  A
O1240      C1245   1.278       .  A
C1241      C1408   1.492       .  S
O1242      C1244   1.260       .  A
O1243     Ni1254   1.943       .  S
C1244      O1250   1.285       .  A
C1244      C1401   1.482       .  S
C1245      C1391   1.485       .  S
H1246      O1247   0.966       .  S
O1247     Ni1255   1.911   1_455  S
O1247     Ni1249   1.901       .  S
O1247     Ni1254   1.924       .  S
O1248     Ni1249   1.948   1_655  S
Ni1249     O1253   1.876       .  S
Ni1249     O1251   1.892       .  S
O1250     Ni1255   1.974   1_455  S
C1252      O1253   1.257       .  A
C1252      C1501   1.477       .  S
C1257      C1373   1.484       .  S
C1257      C1258   1.408       .  A
C1257      C1262   1.409       .  A
C1258      C1259   1.406       .  A
C1258      H1263   1.083       .  S
C1259      C1345   1.484       .  S
C1259      C1260   1.403       .  A
C1260      C1261   1.405       .  A
C1260      H1264   1.083       .  S
C1261      C1276   1.484       .  S
C1261      C1262   1.404       .  A
C1262      H1265   1.083       .  S
O1266     Ni1274   1.907       .  S
O1266      C1276   1.280       .  A
O1267     Ni1274   1.902       .  S
O1267      C1277   1.278       .  A
O1268     Ni1274   1.939       .  S
O1268      C1278   1.285       .  A
O1269     Ni1274   1.931       .  S
O1269      C1279   1.286       .  A
O1270     Ni1275   1.925       .  S
O1270      C1279   1.282       .  A
O1271     Ni1275   1.929       .  S
O1271      C1278   1.284       .  A
O1272     Ni1275   1.918       .  S
O1272      C1277   1.283       .  A
O1273     Ni1275   1.926       .  S
O1273      C1276   1.283       .  A
Ni1274    Ni1275   2.382       .  S
C1277      C2041   1.483       .  S
C1278      C1291   1.501       .  S
C1279      C1831   1.501       .  S
C1280      C1310   1.487       .  S
C1280      C1281   1.414       .  A
C1280      C1285   1.393       .  A
C1281      C1282   1.419       .  A
C1281      H1286   1.083       .  S
C1282      C1359   1.489       .  S
C1282      C1283   1.405       .  A
C1283      C1284   1.401       .  A
C1283      H1287   1.083       .  S
C1284      C1375   1.470       .  S
C1284      C1285   1.398       .  A
C1285      H1288   1.083       .  S
C1289      C1333   1.484       .  S
C1289      C1290   1.415       .  A
C1289      C1294   1.398       .  A
C1290      C1291   1.417       .  A
C1290      H1295   1.083       .  S
C1291      C1292   1.415       .  A
C1292      C1293   1.410       .  A
C1292      H1296   1.083       .  S
C1293      C1308   1.483       .  S
C1293      C1294   1.392       .  A
C1294      H1297   1.083       .  S
O1298     Ni1306   1.925       .  S
O1298      C1308   1.287       .  A
O1299     Ni1306   1.924       .  S
O1299      C1309   1.284       .  A
O1300     Ni1306   1.913       .  S
O1300      C1310   1.276       .  A
O1301     Ni1306   1.898       .  S
O1301      C1311   1.277       .  A
O1302     Ni1307   1.928       .  S
O1302      C1311   1.285       .  A
O1303     Ni1307   1.926       .  S
O1303      C1310   1.288       .  A
O1304     Ni1307   1.889       .  S
O1304      C1309   1.275       .  A
O1305     Ni1307   1.906       .  S
O1305      C1308   1.276       .  A
Ni1306    Ni1307   2.383       .  S
C1309      C1418   1.480       .  S
C1311      C1981   1.489       .  S
C1312      C1347   1.491       .  S
C1312      C1313   1.410       .  A
C1312      C1317   1.406       .  A
C1313      C1314   1.413       .  A
C1313      H1318   1.083       .  S
C1314      C1361   1.489       .  S
C1314      C1315   1.407       .  A
C1315      C1316   1.404       .  A
C1315      H1319   1.083       .  S
C1316      C1331   1.484       .  S
C1316      C1317   1.404       .  A
C1317      H1320   1.083       .  S
O1321     Ni1329   1.922       .  S
O1321      C1331   1.283       .  A
O1322     Ni1329   1.914       .  S
O1322      C1332   1.279       .  A
O1323     Ni1329   1.912       .  S
O1323      C1333   1.285       .  A
O1324     Ni1329   1.909       .  S
O1324      C1334   1.277       .  A
O1325     Ni1330   1.904       .  S
O1325      C1334   1.280       .  A
O1326     Ni1330   1.918       .  S
O1326      C1333   1.278       .  A
O1327     Ni1330   1.911       .  S
O1327      C1332   1.283       .  A
O1328     Ni1330   1.913       .  S
O1328      C1331   1.281       .  A
Ni1329    Ni1330   2.388       .  S
C1332      C2221   1.482       .  S
C1334      C1628   1.456       .  S
O1335     Ni1343   1.921       .  S
O1335      C1345   1.282   1_556  A
O1336     Ni1343   1.909       .  S
O1336      C1346   1.280       .  A
O1337     Ni1343   1.928       .  S
O1337      C1347   1.283   1_556  A
O1338     Ni1343   1.922       .  S
O1338      C1348   1.284       .  A
O1339     Ni1344   1.910       .  S
O1339      C1348   1.279       .  A
O1340     Ni1344   1.919   1_554  S
O1340      C1347   1.283       .  A
O1341     Ni1344   1.912       .  S
O1341      C1346   1.280       .  A
O1342     Ni1344   1.914   1_554  S
O1342      C1345   1.282       .  A
Ni1343    Ni1344   2.387       .  S
C1346      C1778   1.473       .  S
C1348      C1378   1.478       .  S
O1349     Ni1357   1.913       .  S
O1349      C1359   1.279   1_565  A
O1350     Ni1357   1.907       .  S
O1350      C1360   1.279       .  A
O1351     Ni1357   1.924       .  S
O1351      C1361   1.285   1_565  A
O1352     Ni1357   1.920       .  S
O1352      C1362   1.284       .  A
O1353     Ni1358   1.915       .  S
O1353      C1362   1.278       .  A
O1354     Ni1358   1.920   1_545  S
O1354      C1361   1.281       .  A
O1355     Ni1358   1.922       .  S
O1355      C1360   1.284       .  A
O1356     Ni1358   1.932   1_545  S
O1356      C1359   1.287       .  A
Ni1357    Ni1358   2.385       .  S
C1360      C1881   1.488       .  S
C1362      C1681   1.475       .  S
O1363     Ni1371   1.915       .  S
O1363      C1373   1.282   1_655  A
O1364     Ni1371   1.913       .  S
O1364      C1374   1.281       .  A
O1365     Ni1371   1.893       .  S
O1365      C1375   1.279   1_655  A
O1366     Ni1371   1.891       .  S
O1366      C1376   1.276       .  A
O1367     Ni1372   1.907       .  S
O1367      C1376   1.281       .  A
O1368     Ni1372   1.913       .  S
O1368      C1375   1.280   1_655  A
O1369     Ni1372   1.912       .  S
O1369      C1374   1.282       .  A
O1370     Ni1372   1.921       .  S
O1370      C1373   1.283   1_655  A
Ni1371    Ni1372   2.388       .  S
C1374      C1571   1.487       .  S
C1376      C1518   1.458       .  S
C1377      C1378   1.404       .  A
C1377      C1382   1.400       .  A
C1377      F1384   1.358       .  S
C1378      C1379   1.407       .  A
C1379      C1380   1.398       .  A
C1379      F1386   1.358       .  S
C1380      C1381   1.411       .  A
C1380      F1385   1.358       .  S
C1381      C1382   1.415       .  A
C1382      F1383   1.358       .  S
C1387      C1388   1.413       .  A
C1387      C1392   1.402       .  A
C1387      F1394   1.357       .  S
C1388      C1389   1.413       .  A
C1389      C1390   1.402       .  A
C1389      F1396   1.358       .  S
C1390      C1391   1.408       .  A
C1390      F1395   1.358       .  S
C1391      C1392   1.407       .  A
C1392      F1393   1.358       .  S
C1397      C1398   1.398       .  A
C1397      C1402   1.383       .  A
C1397      F1404   1.359       .  S
C1398      C1399   1.413       .  A
C1399      C1400   1.407       .  A
C1399      F1406   1.357       .  S
C1400      C1401   1.406       .  A
C1400      F1405   1.357       .  S
C1401      C1402   1.416       .  A
C1402      F1403   1.357       .  S
C1407      C1408   1.414       .  A
C1407      C1412   1.397       .  A
C1407      F1414   1.358       .  S
C1408      C1409   1.406       .  A
C1409      C1410   1.406       .  A
C1409      F1416   1.357       .  S
C1410      C1411   1.416       .  A
C1410      F1415   1.357       .  S
C1411      C1412   1.407       .  A
C1412      F1413   1.358       .  S
C1417      C1418   1.417       .  A
C1417      C1422   1.392       .  A
C1417      F1424   1.358       .  S
C1418      C1419   1.408       .  A
C1419      C1420   1.396       .  A
C1419      F1426   1.358       .  S
C1420      C1421   1.402       .  A
C1420      F1425   1.357       .  S
C1421      C1422   1.395       .  A
C1422      F1423   1.359       .  S
C1427      C1428   1.415       .  A
C1427      C1432   1.407       .  A
C1427      F1434   1.358       .  S
C1428      C1429   1.405       .  A
C1429      C1430   1.396       .  A
C1429      F1436   1.358       .  S
C1430      C1431   1.408       .  A
C1430      F1435   1.356       .  S
C1431      C1432   1.403       .  A
C1432      F1433   1.357       .  S
C1437      C1438   1.399       .  A
C1437      C1442   1.404       .  A
C1437      F1444   1.357       .  S
C1438      C1439   1.413       .  A
C1439      C1440   1.387       .  A
C1439      F1446   1.358       .  S
C1440      C1441   1.392       .  A
C1440      F1445   1.358       .  S
C1441      C1442   1.412       .  A
C1442      F1443   1.357       .  S
C1447      C1448   1.407       .  A
C1447      C1452   1.396       .  A
C1447      F1454   1.357       .  S
C1448      C1449   1.406       .  A
C1449      C1450   1.394       .  A
C1449      F1456   1.358       .  S
C1450      C1451   1.407       .  A
C1450      F1455   1.358       .  S
C1451      C1452   1.406       .  A
C1452      F1453   1.358       .  S
C1457      C1458   1.419       .  A
C1457      C1462   1.385       .  A
C1457      F1464   1.359       .  S
C1458      C1459   1.409       .  A
C1459      C1460   1.407       .  A
C1459      F1466   1.357       .  S
C1460      C1461   1.409       .  A
C1460      F1465   1.358       .  S
C1461      C1462   1.395       .  A
C1462      F1463   1.359       .  S
C1467      C1468   1.409       .  A
C1467      C1472   1.399       .  A
C1467      F1474   1.356       .  S
C1468      C1469   1.402       .  A
C1469      C1470   1.400       .  A
C1469      F1476   1.358       .  S
C1470      C1471   1.415       .  A
C1470      F1475   1.358       .  S
C1471      C1472   1.410       .  A
C1472      F1473   1.358       .  S
C1477      C1478   1.410       .  A
C1477      C1482   1.402       .  A
C1477      F1484   1.351       .  S
C1478      C1479   1.412       .  A
C1479      C1480   1.402       .  A
C1479      F1486   1.358       .  S
C1480      C1481   1.408       .  A
C1480      F1485   1.358       .  S
C1481      C1482   1.405       .  A
C1482      F1483   1.358       .  S
C1487      C1488   1.416       .  A
C1487      C1492   1.406       .  A
C1487      F1494   1.358       .  S
C1488      C1489   1.409       .  A
C1489      C1490   1.397       .  A
C1489      F1496   1.358       .  S
C1490      C1491   1.408       .  A
C1490      F1495   1.359       .  S
C1491      C1492   1.404       .  A
C1492      F1493   1.357       .  S
C1497      C1498   1.400       .  A
C1497      C1502   1.403       .  A
C1497      F1504   1.357       .  S
C1498      C1499   1.416       .  A
C1499      C1500   1.402       .  A
C1499      F1506   1.358       .  S
C1500      C1501   1.398       .  A
C1500      F1505   1.357       .  S
C1501      C1502   1.411       .  A
C1502      F1503   1.357       .  S
C1507      C1508   1.408       .  A
C1507      C1512   1.402       .  A
C1507      F1514   1.358       .  S
C1508      C1509   1.408       .  A
C1509      C1510   1.391       .  A
C1509      F1516   1.359       .  S
C1510      C1511   1.411       .  A
C1510      F1515   1.359       .  S
C1511      C1512   1.408       .  A
C1512      F1513   1.354       .  S
C1517      C1518   1.398       .  A
C1517      C1522   1.391       .  A
C1517      F1524   1.359       .  S
C1518      C1519   1.406       .  A
C1519      C1520   1.393       .  A
C1519      F1526   1.358       .  S
C1520      C1521   1.406       .  A
C1520      F1525   1.358       .  S
C1521      C1522   1.415       .  A
C1522      F1523   1.356       .  S
C1527      C1528   1.411       .  A
C1527      C1532   1.401       .  A
C1527      F1534   1.358       .  S
C1528      C1529   1.401       .  A
C1529      C1530   1.403       .  A
C1529      F1536   1.358       .  S
C1530      C1531   1.417       .  A
C1530      F1535   1.358       .  S
C1531      C1532   1.406       .  A
C1532      F1533   1.358       .  S
C1537      C1538   1.410       .  A
C1537      C1542   1.394       .  A
C1537      F1544   1.359   1_554  S
C1538      C1539   1.401       .  A
C1539      C1540   1.405       .  A
C1539      F1546   1.357       .  S
C1540      C1541   1.409       .  A
C1540      F1545   1.357       .  S
C1541      C1542   1.397       .  A
C1542      F1543   1.358       .  S
C1547      C1548   1.398       .  A
C1547      C1552   1.400       .  A
C1547      F1554   1.357       .  S
C1548      C1549   1.416       .  A
C1549      C1550   1.387       .  A
C1549      F1556   1.349       .  S
C1550      C1551   1.387       .  A
C1550      F1555   1.359       .  S
C1551      C1552   1.408       .  A
C1552      F1553   1.353       .  S
C1557      C1558   1.418       .  A
C1557      C1562   1.406       .  A
C1557      F1564   1.358       .  S
C1558      C1559   1.408       .  A
C1559      C1560   1.402       .  A
C1559      F1566   1.358       .  S
C1560      C1561   1.410       .  A
C1560      F1565   1.358       .  S
C1561      C1562   1.403       .  A
C1562      F1563   1.358       .  S
C1567      C1568   1.406       .  A
C1567      C1572   1.401       .  A
C1567      F1574   1.357       .  S
C1568      C1569   1.410       .  A
C1569      C1570   1.394       .  A
C1569      F1576   1.358       .  S
C1570      C1571   1.409       .  A
C1570      F1575   1.358       .  S
C1571      C1572   1.412       .  A
C1572      F1573   1.358       .  S
C1577      C1578   1.405       .  A
C1577      C1582   1.393       .  A
C1577      F1584   1.359       .  S
C1578      C1579   1.401       .  A
C1579      C1580   1.399       .  A
C1579      F1586   1.357       .  S
C1580      C1581   1.415       .  A
C1580      F1585   1.358       .  S
C1581      C1582   1.409       .  A
C1582      F1583   1.358       .  S
C1587      C1588   1.399       .  A
C1587      C1592   1.397       .  A
C1587      F1594   1.357       .  S
C1588      C1589   1.413       .  A
C1589      C1590   1.391       .  A
C1589      F1596   1.354       .  S
C1590      C1591   1.390       .  A
C1590      F1595   1.358       .  S
C1591      C1592   1.409       .  A
C1592      F1593   1.356       .  S
C1597      C1598   1.404       .  A
C1597      C1602   1.397       .  A
C1597      F1604   1.358       .  S
C1598      C1599   1.408       .  A
C1599      C1600   1.398       .  A
C1599      F1606   1.358       .  S
C1600      C1601   1.410       .  A
C1600      F1605   1.358       .  S
C1601      C1602   1.413       .  A
C1602      F1603   1.358       .  S
C1607      C1608   1.412       .  A
C1607      C1612   1.408       .  A
C1607      F1614   1.357       .  S
C1608      C1609   1.411       .  A
C1609      C1610   1.394       .  A
C1609      F1616   1.359       .  S
C1610      C1611   1.411       .  A
C1610      F1615   1.358       .  S
C1611      C1612   1.411       .  A
C1612      F1613   1.356       .  S
C1617      C1618   1.408       .  A
C1617      C1622   1.400       .  A
C1617      F1624   1.358       .  S
C1618      C1619   1.396       .  A
C1619      C1620   1.395       .  A
C1619      F1626   1.358       .  S
C1620      C1621   1.414       .  A
C1620      F1625   1.342       .  S
C1621      C1622   1.410       .  A
C1622      F1623   1.358       .  S
C1627      C1628   1.392       .  A
C1627      C1632   1.382       .  A
C1627      F1634   1.359       .  S
C1628      C1629   1.408       .  A
C1629      C1630   1.405       .  A
C1629      F1636   1.358       .  S
C1630      C1631   1.405       .  A
C1630      F1635   1.357       .  S
C1631      C1632   1.415       .  A
C1632      F1633   1.359       .  S
C1637      C1638   1.414       .  A
C1637      C1642   1.406       .  A
C1637      F1644   1.357       .  S
C1638      C1639   1.410       .  A
C1639      C1640   1.403       .  A
C1639      F1646   1.358       .  S
C1640      C1641   1.414       .  A
C1640      F1645   1.358       .  S
C1641      C1642   1.410       .  A
C1642      F1643   1.358       .  S
C1647      C1648   1.410       .  A
C1647      C1652   1.398       .  A
C1647      F1654   1.356       .  S
C1648      C1649   1.399       .  A
C1649      C1650   1.405       .  A
C1649      F1656   1.357       .  S
C1650      C1651   1.417       .  A
C1650      F1655   1.358       .  S
C1651      C1652   1.400       .  A
C1652      F1653   1.358       .  S
C1657      C1658   1.412       .  A
C1657      C1662   1.403       .  A
C1657      F1664   1.358       .  S
C1658      C1659   1.410       .  A
C1659      C1660   1.404       .  A
C1659      F1666   1.358       .  S
C1660      C1661   1.413       .  A
C1660      F1665   1.358       .  S
C1661      C1662   1.412       .  A
C1662      F1663   1.357       .  S
C1667      C1668   1.411       .  A
C1667      C1672   1.398       .  A
C1667      F1674   1.358       .  S
C1668      C1669   1.404       .  A
C1669      C1670   1.406       .  A
C1669      F1676   1.358       .  S
C1670      C1671   1.418       .  A
C1670      F1675   1.357       .  S
C1671      C1672   1.408       .  A
C1672      F1673   1.358       .  S
C1677      C1678   1.408       .  A
C1677      C1682   1.411       .  A
C1677      F1684   1.357       .  S
C1678      C1679   1.423       .  A
C1679      C1680   1.388       .  A
C1679      F1686   1.359       .  S
C1680      C1681   1.392       .  A
C1680      F1685   1.359       .  S
C1681      C1682   1.412       .  A
C1682      F1683   1.358       .  S
C1687      C1688   1.391       .  A
C1687      C1692   1.387       .  A
C1687      F1694   1.359       .  S
C1688      C1689   1.411       .  A
C1689      C1690   1.408       .  A
C1689      F1696   1.358       .  S
C1690      C1691   1.405       .  A
C1690      F1695   1.357       .  S
C1691      C1692   1.418       .  A
C1692      F1693   1.359       .  S
C1697      C1698   1.402       .  A
C1697      C1702   1.407       .  A
C1697      F1704   1.357       .  S
C1698      C1699   1.413       .  A
C1699      C1700   1.400       .  A
C1699      F1706   1.355       .  S
C1700      C1701   1.405       .  A
C1700      F1705   1.358       .  S
C1701      C1702   1.420       .  A
C1702      F1703   1.357       .  S
C1707      C1708   1.412       .  A
C1707      C1712   1.402       .  A
C1707      F1714   1.357       .  S
C1708      C1709   1.400       .  A
C1709      C1710   1.404       .  A
C1709      F1716   1.357       .  S
C1710      C1711   1.411       .  A
C1710      F1715   1.356       .  S
C1711      C1712   1.399       .  A
C1712      F1713   1.358       .  S
C1717      C1718   1.407       .  A
C1717      C1722   1.397       .  A
C1717      F1724   1.358       .  S
C1718      C1719   1.409       .  A
C1719      C1720   1.402       .  A
C1719      F1726   1.357       .  S
C1720      C1721   1.411       .  A
C1720      F1725   1.358       .  S
C1721      C1722   1.412       .  A
C1722      F1723   1.358       .  S
C1727      C1728   1.406       .  A
C1727      C1732   1.398       .  A
C1727      F1734   1.358       .  S
C1728      C1729   1.418       .  A
C1729      C1730   1.405       .  A
C1729      F1736   1.358       .  S
C1730      C1731   1.403       .  A
C1730      F1735   1.358       .  S
C1731      C1732   1.412       .  A
C1732      F1733   1.356       .  S
C1737      C1738   1.405       .  A
C1737      C1742   1.405       .  A
C1737      F1744   1.357       .  S
C1738      C1739   1.417       .  A
C1739      C1740   1.383       .  A
C1739      F1746   1.359       .  S
C1740      C1741   1.391       .  A
C1740      F1745   1.359       .  S
C1741      C1742   1.409       .  A
C1742      F1743   1.358       .  S
C1747      C1748   1.412       .  A
C1747      C1752   1.399       .  A
C1747      F1754   1.358       .  S
C1748      C1749   1.409       .  A
C1749      C1750   1.405       .  A
C1749      F1756   1.357       .  S
C1750      C1751   1.411       .  A
C1750      F1755   1.357       .  S
C1751      C1752   1.411       .  A
C1752      F1753   1.358       .  S
C1757      C1758   1.411       .  A
C1757      C1762   1.405       .  A
C1757      F1764   1.357       .  S
C1758      C1759   1.410       .  A
C1759      C1760   1.405       .  A
C1759      F1766   1.357       .  S
C1760      C1761   1.413       .  A
C1760      F1765   1.358       .  S
C1761      C1762   1.413       .  A
C1762      F1763   1.358       .  S
C1767      C1768   1.405       .  A
C1767      C1772   1.404       .  A
C1767      F1774   1.357       .  S
C1768      C1769   1.415       .  A
C1769      C1770   1.382       .  A
C1769      F1776   1.359       .  S
C1770      C1771   1.392       .  A
C1770      F1775   1.359       .  S
C1771      C1772   1.408       .  A
C1772      F1773   1.358       .  S
C1777      C1778   1.409       .  A
C1777      C1782   1.401       .  A
C1777      F1784   1.358       .  S
C1778      C1779   1.397       .  A
C1779      C1780   1.394       .  A
C1779      F1786   1.358       .  S
C1780      C1781   1.415       .  A
C1780      F1785   1.350       .  S
C1781      C1782   1.409       .  A
C1782      F1783   1.358       .  S
C1787      C1788   1.404       .  A
C1787      C1792   1.402       .  A
C1787      F1794   1.355       .  S
C1788      C1789   1.402       .  A
C1789      C1790   1.396       .  A
C1789      F1796   1.358       .  S
C1790      C1791   1.413       .  A
C1790      F1795   1.358       .  S
C1791      C1792   1.410       .  A
C1792      F1793   1.358       .  S
C1797      C1798   1.391       .  A
C1797      C1802   1.392       .  A
C1797      F1804   1.358       .  S
C1798      C1799   1.407       .  A
C1799      C1800   1.397       .  A
C1799      F1806   1.354       .  S
C1800      C1801   1.399       .  A
C1800      F1805   1.358       .  S
C1801      C1802   1.412       .  A
C1802      F1803   1.352       .  S
C1807      C1808   1.407       .  A
C1807      C1812   1.397       .  A
C1807      F1814   1.358       .  S
C1808      C1809   1.417       .  A
C1809      C1810   1.394       .  A
C1809      F1816   1.354   1_565  S
C1810      C1811   1.397       .  A
C1810      F1815   1.358       .  S
C1811      C1812   1.408       .  A
C1812      F1813   1.358       .  S
C1817      C1818   1.402       .  A
C1817      C1822   1.401       .  A
C1817      F1824   1.356       .  S
C1818      C1819   1.405       .  A
C1819      C1820   1.395       .  A
C1819      F1826   1.358       .  S
C1820      C1821   1.410       .  A
C1820      F1825   1.358       .  S
C1821      C1822   1.414       .  A
C1822      F1823   1.358       .  S
C1827      C1828   1.407       .  A
C1827      C1832   1.410       .  A
C1827      F1834   1.357       .  S
C1828      C1829   1.413       .  A
C1829      C1830   1.398       .  A
C1829      F1836   1.356   1_554  S
C1830      C1831   1.407       .  A
C1830      F1835   1.358       .  S
C1831      C1832   1.417       .  A
C1832      F1833   1.357       .  S
C1837      C1838   1.410       .  A
C1837      C1842   1.392       .  A
C1837      F1844   1.358       .  S
C1838      C1839   1.407       .  A
C1839      C1840   1.401       .  A
C1839      F1846   1.358       .  S
C1840      C1841   1.413       .  A
C1840      F1845   1.358       .  S
C1841      C1842   1.407       .  A
C1842      F1843   1.358       .  S
C1847      C1848   1.410       .  A
C1847      C1852   1.402       .  A
C1847      F1854   1.357       .  S
C1848      C1849   1.396       .  A
C1849      C1850   1.401       .  A
C1849      F1856   1.357       .  S
C1850      C1851   1.414       .  A
C1850      F1855   1.357       .  S
C1851      C1852   1.399       .  A
C1852      F1853   1.357       .  S
C1857      C1858   1.396       .  A
C1857      C1862   1.400       .  A
C1857      F1864   1.357       .  S
C1858      C1859   1.411       .  A
C1859      C1860   1.402       .  A
C1859      F1866   1.357       .  S
C1860      C1861   1.399       .  A
C1860      F1865   1.357       .  S
C1861      C1862   1.415       .  A
C1862      F1863   1.358       .  S
C1867      C1868   1.410       .  A
C1867      C1872   1.390       .  A
C1867      F1874   1.358       .  S
C1868      C1869   1.408       .  A
C1869      C1870   1.401       .  A
C1869      F1876   1.358       .  S
C1870      C1871   1.411       .  A
C1870      F1875   1.358       .  S
C1871      C1872   1.407       .  A
C1872      F1873   1.359       .  S
C1877      C1878   1.401       .  A
C1877      C1882   1.399       .  A
C1877      F1884   1.358       .  S
C1878      C1879   1.407       .  A
C1879      C1880   1.397       .  A
C1879      F1886   1.358       .  S
C1880      C1881   1.409       .  A
C1880      F1885   1.358       .  S
C1881      C1882   1.415       .  A
C1882      F1883   1.358       .  S
C1887      C1888   1.389       .  A
C1887      C1892   1.388       .  A
C1887      F1894   1.358       .  S
C1888      C1889   1.404       .  A
C1889      C1890   1.391       .  A
C1889      F1896   1.351       .  S
C1890      C1891   1.397       .  A
C1890      F1895   1.358       .  S
C1891      C1892   1.413       .  A
C1892      F1893   1.355       .  S
C1897      C1898   1.404       .  A
C1897      C1902   1.402       .  A
C1897      F1904   1.358       .  S
C1898      C1899   1.400       .  A
C1899      C1900   1.391       .  A
C1899      F1906   1.353       .  S
C1900      C1901   1.409       .  A
C1900      F1905   1.358       .  S
C1901      C1902   1.411       .  A
C1902      F1903   1.358       .  S
C1907      C1908   1.399       .  A
C1907      C1912   1.403       .  A
C1907      F1914   1.358       .  S
C1908      C1909   1.410       .  A
C1909      C1910   1.390       .  A
C1909      F1916   1.355       .  S
C1910      C1911   1.400       .  A
C1910      F1915   1.358       .  S
C1911      C1912   1.417       .  A
C1912      F1913   1.358       .  S
C1917      C1918   1.410       .  A
C1917      C1922   1.393       .  A
C1917      F1924   1.358       .  S
C1918      C1919   1.410       .  A
C1919      C1920   1.394       .  A
C1919      F1926   1.356       .  S
C1920      C1921   1.405       .  A
C1920      F1925   1.358       .  S
C1921      C1922   1.408       .  A
C1922      F1923   1.358       .  S
C1927      C1928   1.408       .  A
C1927      C1932   1.408       .  A
C1927      F1934   1.357       .  S
C1928      C1929   1.413       .  A
C1929      C1930   1.397       .  A
C1929      F1936   1.358       .  S
C1930      C1931   1.410       .  A
C1930      F1935   1.358       .  S
C1931      C1932   1.414       .  A
C1932      F1933   1.357       .  S
C1937      C1938   1.407       .  A
C1937      C1942   1.395       .  A
C1937      F1944   1.358       .  S
C1938      C1939   1.402       .  A
C1939      C1940   1.404       .  A
C1939      F1946   1.357       .  S
C1940      C1941   1.416       .  A
C1940      F1945   1.358       .  S
C1941      C1942   1.409       .  A
C1942      F1943   1.358       .  S
C1947      C1948   1.413       .  A
C1947      C1952   1.401       .  A
C1947      F1954   1.357       .  S
C1948      C1949   1.412       .  A
C1949      C1950   1.400       .  A
C1949      F1956   1.358       .  S
C1950      C1951   1.407       .  A
C1950      F1955   1.357       .  S
C1951      C1952   1.405       .  A
C1952      F1953   1.358       .  S
C1957      C1958   1.420       .  A
C1957      C1962   1.391       .  A
C1957      F1964   1.359       .  S
C1958      C1959   1.409       .  A
C1959      C1960   1.408       .  A
C1959      F1966   1.357       .  S
C1960      C1961   1.411       .  A
C1960      F1965   1.358       .  S
C1961      C1962   1.398       .  A
C1962      F1963   1.359       .  S
C1967      C1968   1.405       .  A
C1967      C1972   1.400       .  A
C1967      F1974   1.358       .  S
C1968      C1969   1.407       .  A
C1969      C1970   1.399       .  A
C1969      F1976   1.358       .  S
C1970      C1971   1.412       .  A
C1970      F1975   1.358       .  S
C1971      C1972   1.411       .  A
C1972      F1973   1.357       .  S
C1977      C1978   1.411       .  A
C1977      C1982   1.401       .  A
C1977      F1984   1.358       .  S
C1978      C1979   1.404       .  A
C1979      C1980   1.396       .  A
C1979      F1986   1.358       .  S
C1980      C1981   1.413       .  A
C1980      F1985   1.358       .  S
C1981      C1982   1.409       .  A
C1982      F1983   1.358       .  S
C1987      C1988   1.401       .  A
C1987      C1992   1.402       .  A
C1987      F1994   1.356       .  S
C1988      C1989   1.407       .  A
C1989      C1990   1.395       .  A
C1989      F1996   1.358       .  S
C1990      C1991   1.409       .  A
C1990      F1995   1.358       .  S
C1991      C1992   1.416       .  A
C1992      F1993   1.357       .  S
C1997      C1998   1.408       .  A
C1997      C2002   1.399       .  A
C1997      F2004   1.358       .  S
C1998      C1999   1.405       .  A
C1999      C2000   1.396       .  A
C1999      F2006   1.358       .  S
C2000      C2001   1.412       .  A
C2000      F2005   1.358       .  S
C2001      C2002   1.411       .  A
C2002      F2003   1.358       .  S
C2007      C2008   1.400       .  A
C2007      C2012   1.398       .  A
C2007      F2014   1.357       .  S
C2008      C2009   1.406       .  A
C2009      C2010   1.394       .  A
C2009      F2016   1.359       .  S
C2010      C2011   1.409       .  A
C2010      F2015   1.358       .  S
C2011      C2012   1.416       .  A
C2012      F2013   1.358       .  S
C2017      C2018   1.409       .  A
C2017      C2022   1.395       .  A
C2017      F2024   1.358       .  S
C2018      C2019   1.415       .  A
C2019      C2020   1.406       .  A
C2019      F2026   1.357       .  S
C2020      C2021   1.406       .  A
C2020      F2025   1.357       .  S
C2021      C2022   1.412       .  A
C2022      F2023   1.358       .  S
C2027      C2028   1.408       .  A
C2027      C2032   1.406       .  A
C2027      F2034   1.356       .  S
C2028      C2029   1.413       .  A
C2029      C2030   1.397       .  A
C2029      F2036   1.358       .  S
C2030      C2031   1.408       .  A
C2030      F2035   1.358       .  S
C2031      C2032   1.413       .  A
C2032      F2033   1.357       .  S
C2037      C2038   1.398       .  A
C2037      C2042   1.397       .  A
C2037      F2044   1.358       .  S
C2038      C2039   1.402       .  A
C2039      C2040   1.394       .  A
C2039      F2046   1.358       .  S
C2040      C2041   1.409       .  A
C2040      F2045   1.358       .  S
C2041      C2042   1.415       .  A
C2042      F2043   1.358       .  S
C2047      C2048   1.413       .  A
C2047      C2052   1.402       .  A
C2047      F2054   1.357       .  S
C2048      C2049   1.408       .  A
C2049      C2050   1.400       .  A
C2049      F2056   1.358       .  S
C2050      C2051   1.414       .  A
C2050      F2055   1.358       .  S
C2051      C2052   1.407       .  A
C2052      F2053   1.358       .  S
C2057      C2058   1.403       .  A
C2057      C2062   1.394       .  A
C2057      F2064   1.358       .  S
C2058      C2059   1.413       .  A
C2059      C2060   1.402       .  A
C2059      F2066   1.358       .  S
C2060      C2061   1.401       .  A
C2060      F2065   1.358       .  S
C2061      C2062   1.407       .  A
C2062      F2063   1.355       .  S
C2067      C2068   1.409       .  A
C2067      C2072   1.406       .  A
C2067      F2074   1.355       .  S
C2068      C2069   1.414       .  A
C2069      C2070   1.401       .  A
C2069      F2076   1.358       .  S
C2070      C2071   1.411       .  A
C2070      F2075   1.358       .  S
C2071      C2072   1.414       .  A
C2072      F2073   1.358       .  S
C2077      C2078   1.415       .  A
C2077      C2082   1.390       .  A
C2077      F2084   1.355       .  S
C2078      C2079   1.395       .  A
C2079      C2080   1.397       .  A
C2079      F2086   1.357       .  S
C2080      C2081   1.408       .  A
C2080      F2085   1.353       .  S
C2081      C2082   1.390       .  A
C2082      F2083   1.358       .  S
C2087      C2088   1.412       .  A
C2087      C2092   1.403       .  A
C2087      F2094   1.357       .  S
C2088      C2089   1.412       .  A
C2089      C2090   1.395       .  A
C2089      F2096   1.358       .  S
C2090      C2091   1.404       .  A
C2090      F2095   1.359       .  S
C2091      C2092   1.404       .  A
C2092      F2093   1.357       .  S
C2097      C2098   1.413       .  A
C2097      C2102   1.394       .  A
C2097      F2104   1.358       .  S
C2098      C2099   1.412       .  A
C2099      C2100   1.400       .  A
C2099      F2106   1.358       .  S
C2100      C2101   1.402       .  A
C2100      F2105   1.357   1_655  S
C2101      C2102   1.399       .  A
C2102      F2103   1.358       .  S
C2107      C2108   1.407       .  A
C2107      C2112   1.399       .  A
C2107      F2114   1.358       .  S
C2108      C2109   1.410       .  A
C2109      C2110   1.403       .  A
C2109      F2116   1.358       .  S
C2110      C2111   1.404       .  A
C2110      F2115   1.358       .  S
C2111      C2112   1.404       .  A
C2112      F2113   1.355   1_556  S
C2117      C2118   1.412       .  A
C2117      C2122   1.409       .  A
C2117      F2124   1.357       .  S
C2118      C2119   1.394       .  A
C2119      C2120   1.380       .  A
C2119      F2126   1.360       .  S
C2120      C2121   1.420       .  A
C2120      F2125   1.358       .  S
C2121      C2122   1.408       .  A
C2122      F2123   1.357       .  S
C2127      C2128   1.409       .  A
C2127      C2132   1.408       .  A
C2127      F2134   1.357       .  S
C2128      C2129   1.409       .  A
C2129      C2130   1.397       .  A
C2129      F2136   1.358       .  S
C2130      C2131   1.412       .  A
C2130      F2135   1.358       .  S
C2131      C2132   1.412       .  A
C2132      F2133   1.356       .  S
C2137      C2138   1.413       .  A
C2137      C2142   1.397       .  A
C2137      F2144   1.358       .  S
C2138      C2139   1.411       .  A
C2139      C2140   1.394       .  A
C2139      F2146   1.358       .  S
C2140      C2141   1.404       .  A
C2140      F2145   1.358       .  S
C2141      C2142   1.400       .  A
C2142      F2143   1.358       .  S
C2147      C2148   1.417       .  A
C2147      C2152   1.410       .  A
C2147      F2154   1.357       .  S
C2148      C2149   1.407       .  A
C2149      C2150   1.397       .  A
C2149      F2156   1.358       .  S
C2150      C2151   1.411       .  A
C2150      F2155   1.354       .  S
C2151      C2152   1.406       .  A
C2152      F2153   1.357       .  S
C2157      C2158   1.403       .  A
C2157      C2162   1.388       .  A
C2157      F2164   1.358       .  S
C2158      C2159   1.410       .  A
C2159      C2160   1.401       .  A
C2159      F2166   1.358       .  S
C2160      C2161   1.402       .  A
C2160      F2165   1.357       .  S
C2161      C2162   1.403       .  A
C2162      F2163   1.358   1_655  S
C2167      C2168   1.410       .  A
C2167      C2172   1.402       .  A
C2167      F2174   1.358       .  S
C2168      C2169   1.415       .  A
C2169      C2170   1.406       .  A
C2169      F2176   1.357       .  S
C2170      C2171   1.406       .  A
C2170      F2175   1.357       .  S
C2171      C2172   1.411       .  A
C2172      F2173   1.355       .  S
C2177      C2178   1.412       .  A
C2177      C2182   1.398       .  A
C2177      F2184   1.358       .  S
C2178      C2179   1.411       .  A
C2179      C2180   1.396       .  A
C2179      F2186   1.358       .  S
C2180      C2181   1.406       .  A
C2180      F2185   1.358       .  S
C2181      C2182   1.402       .  A
C2182      F2183   1.354       .  S
C2187      C2188   1.412       .  A
C2187      C2192   1.401       .  A
C2187      F2194   1.358       .  S
C2188      C2189   1.411       .  A
C2189      C2190   1.399       .  A
C2189      F2196   1.358       .  S
C2190      C2191   1.410       .  A
C2190      F2195   1.358       .  S
C2191      C2192   1.408       .  A
C2192      F2193   1.358       .  S
C2197      C2198   1.407       .  A
C2197      C2202   1.397       .  A
C2197      F2204   1.353       .  S
C2198      C2199   1.391       .  A
C2199      C2200   1.393       .  A
C2199      F2206   1.358       .  S
C2200      C2201   1.413       .  A
C2200      F2205   1.351       .  S
C2201      C2202   1.401       .  A
C2202      F2203   1.358       .  S
C2207      C2208   1.408       .  A
C2207      C2212   1.394       .  A
C2207      F2214   1.345       .  S
C2208      C2209   1.412       .  A
C2209      C2210   1.400       .  A
C2209      F2216   1.358       .  S
C2210      C2211   1.411       .  A
C2210      F2215   1.358       .  S
C2211      C2212   1.404       .  A
C2212      F2213   1.358       .  S
C2217      C2218   1.409       .  A
C2217      C2222   1.390       .  A
C2217      F2224   1.354       .  S
C2218      C2219   1.404       .  A
C2219      C2220   1.406       .  A
C2219      F2226   1.357       .  S
C2220      C2221   1.415       .  A
C2220      F2225   1.358       .  S
C2221      C2222   1.402       .  A
C2222      F2223   1.359       .  S
C2227      C2228   1.398       .  A
C2227      C2232   1.402       .  A
C2227      F2234   1.357       .  S
C2228      C2229   1.410       .  A
C2229      C2230   1.400       .  A
C2229      F2236   1.357       .  S
C2230      C2231   1.399       .  A
C2230      F2235   1.358       .  S
C2231      C2232   1.412       .  A
C2232      F2233   1.355       .  S
C2237      C2238   1.409       .  A
C2237      C2242   1.396       .  A
C2237      F2244   1.356       .  S
C2238      C2239   1.404       .  A
C2239      C2240   1.407       .  A
C2239      F2246   1.357       .  S
C2240      C2241   1.417       .  A
C2240      F2245   1.357       .  S
C2241      C2242   1.408       .  A
C2242      F2243   1.358       .  S
C2247      C2248   1.410       .  A
C2247      C2252   1.403       .  A
C2247      F2254   1.357       .  S
C2248      C2249   1.408       .  A
C2249      C2250   1.391       .  A
C2249      F2256   1.358       .  S
C2250      C2251   1.408       .  A
C2250      F2255   1.358       .  S
C2251      C2252   1.410       .  A
C2252      F2253   1.358       .  S
C2257      C2258   1.418       .  A
C2257      C2262   1.393       .  A
C2257      F2264   1.359       .  S
C2258      C2259   1.407       .  A
C2259      C2260   1.411       .  A
C2259      F2266   1.357       .  S
C2260      C2261   1.411       .  A
C2260      F2265   1.358       .  S
C2261      C2262   1.394       .  A
C2262      F2263   1.358       .  S
C2267      C2268   1.410       .  A
C2267      C2272   1.397       .  A
C2267      F2274   1.358       .  S
C2268      C2269   1.413       .  A
C2269      C2270   1.400       .  A
C2269      F2276   1.358       .  S
C2270      C2271   1.407       .  A
C2270      F2275   1.358       .  S
C2271      C2272   1.408       .  A
C2272      F2273   1.358       .  S
C2277      C2278   1.404       .  A
C2277      C2282   1.394       .  A
C2277      F2284   1.358       .  S
C2278      C2279   1.414       .  A
C2279      C2280   1.406       .  A
C2279      F2286   1.358       .  S
C2280      C2281   1.408       .  A
C2280      F2285   1.358       .  S
C2281      C2282   1.417       .  A
C2282      F2283   1.358       .  S
C2287      C2288   1.414       .  A
C2287      C2292   1.404       .  A
C2287      F2294   1.353       .  S
C2288      C2289   1.399       .  A
C2289      C2290   1.397       .  A
C2289      F2296   1.358       .  S
C2290      C2291   1.406       .  A
C2290      F2295   1.349       .  S
C2291      C2292   1.397       .  A
C2292      F2293   1.357       .  S
C2297      C2298   1.403       .  A
C2297      C2302   1.394       .  A
C2297      F2304   1.356       .  S
C2298      C2299   1.402       .  A
C2299      C2300   1.394       .  A
C2299      F2306   1.359       .  S
C2300      C2301   1.410       .  A
C2300      F2305   1.358       .  S
C2301      C2302   1.409       .  A
C2302      F2303   1.358       .  S
C2307      C2308   1.414       .  A
C2307      C2312   1.395       .  A
C2307      F2314   1.359       .  S
C2308      C2309   1.404       .  A
C2309      C2310   1.412       .  A
C2309      F2316   1.357       .  S
C2310      C2311   1.413       .  A
C2310      F2315   1.357       .  S
C2311      C2312   1.397       .  A
C2312      F2313   1.358       .  S
C2317      C2318   1.404       .  A
C2317      C2322   1.404       .  A
C2317      F2324   1.357       .  S
C2318      C2319   1.400       .  A
C2319      C2320   1.401       .  A
C2319      F2326   1.358       .  S
C2320      C2321   1.417       .  A
C2320      F2325   1.358       .  S
C2321      C2322   1.412       .  A
C2322      F2323   1.357       .  S
C2327      C2328   1.398       .  A
C2327      C2332   1.397       .  A
C2327      F2334   1.358       .  S
C2328      C2329   1.404       .  A
C2329      C2330   1.386       .  A
C2329      F2336   1.351       .  S
C2330      C2331   1.399       .  A
C2330      F2335   1.359       .  S
C2331      C2332   1.413       .  A
C2332      F2333   1.358       .  S
