geometry optimzed in LAMMPS
_audit_creation_date              2020-11-30 
_audit_creation_method            'lammps2cif' 
_symmetry_space_group_name_H-M    'P1' 
_symmetry_Int_Tables_number       1 
_symmetry_cell_setting            triclinic 
loop_ 
_symmetry_equiv_pos_as_xyz 
  x,y,z 
_cell_length_a                    38.00695084 
_cell_length_b                    38.19257920573776 
_cell_length_c                    38.22346648391868 
_cell_angle_alpha                 89.8668991475937 
_cell_angle_beta                  90.09821622414357 
_cell_angle_gamma                 90.15207824639563 
loop_ 
_atom_site_label 
_atom_site_type_symbol 
_atom_site_fract_x 
_atom_site_fract_y 
_atom_site_fract_z 
_atom_site_charge 
C1          C  0.32407984  0.65676596  0.15010170     0.87100
C2          C  0.30273404  0.63552535  0.12224662    -0.53100
C3          C  0.32340566  0.61453444  0.10200551     0.10000
C4          C  0.36227474  0.61619543  0.11111701     0.21000
C5          C  0.34473933  0.62852702  0.17075493    -0.53900
C6          C  0.36430328  0.60721664  0.14991695     0.10100
C7          C  0.35248486  0.67639479  0.12826408    -0.53400
C8          C  0.37257051  0.65470986  0.10803291     0.10700
H9          H  0.27472479  0.63734215  0.11756711     0.15200
H10         H  0.37856505  0.59862458  0.09458678     0.01000
H11         H  0.34289667  0.62497718  0.19888578     0.15500
H12         H  0.35637510  0.70453524  0.12921016     0.15300
C13         C  0.66557590  0.35196776  0.16988067     0.87100
C14         C  0.69026958  0.37706518  0.14959752    -0.53100
C15         C  0.67312262  0.39932696  0.12751847     0.10000
C16         C  0.63294616  0.39547154  0.12860933     0.21000
C17         C  0.63943391  0.37666550  0.18885564    -0.53900
C18         C  0.62210048  0.39918222  0.16714863     0.10100
C19         C  0.64281782  0.33405211  0.14111247    -0.53400
C20         C  0.62586165  0.35719727  0.11942811     0.10700
H21         H  0.71876715  0.37626015  0.15153222     0.15200
H22         H  0.61971784  0.41424004  0.11092391     0.01000
H23         H  0.63361731  0.37619231  0.21652692     0.15500
H24         H  0.64076202  0.30586382  0.13827222     0.15300
C25         C  0.65174222  0.67123657  0.16284812     0.87100
C26         C  0.62650506  0.68946453  0.13607279    -0.53100
C27         C  0.60536402  0.66639672  0.11828631     0.10000
C28         C  0.61108370  0.62827291  0.12894521     0.21000
C29         C  0.62689036  0.64913063  0.18653890    -0.53900
C30         C  0.60528092  0.62684085  0.16852313     0.10100
C31         C  0.67176065  0.64380807  0.14072722    -0.53400
C32         C  0.65011963  0.62106762  0.12367553     0.10700
H33         H  0.62559447  0.71729392  0.13088531     0.15200
H34         H  0.59460813  0.60965556  0.11383830     0.01000
H35         H  0.62675817  0.65081165  0.21489322     0.15500
H36         H  0.70023560  0.64178851  0.13990909     0.15300
C37         C  0.34154605  0.32858018  0.15027674     0.87100
C38         C  0.36703856  0.30577013  0.12812750    -0.53100
C39         C  0.38758874  0.32428623  0.10573148     0.10000
C40         C  0.38048609  0.36368293  0.10647350     0.21000
C41         C  0.36602223  0.35629513  0.16787707    -0.53900
C42         C  0.38624144  0.37474568  0.14443945     0.10100
C43         C  0.32035524  0.34997678  0.12275005    -0.53400
C44         C  0.34111970  0.36843798  0.09994456     0.10700
H45         H  0.37033949  0.27776874  0.13000041     0.15200
H46         H  0.39659387  0.37879144  0.08749424     0.01000
H47         H  0.36656033  0.36115710  0.19583230     0.15500
H48         H  0.29182561  0.35082273  0.12196842     0.15300
O49         O  0.45219492  0.53755475  0.21278091    -0.72300
O50         O  0.53380810  0.46949112  0.19778740    -0.73300
O51         O  0.52673935  0.54499172  0.20179674    -0.61900
O52         O  0.45877674  0.46170504  0.20931562    -0.70300
O53         O  0.45194851  0.46391793  0.15181812    -0.69900
O54         O  0.51495266  0.54662784  0.14492731    -0.61100
O55         O  0.52393922  0.47332839  0.14066456    -0.73700
O56         O  0.44337909  0.53635903  0.15546195    -0.72400
Cu57       Cu  0.49325456  0.50328901  0.20771271     1.04600
Cu58       Cu  0.48335800  0.50510258  0.14652301     1.04300
C59         C  0.43500423  0.54755131  0.18570458     0.93900
C60         C  0.54132359  0.46082686  0.16628499     0.93000
C61         C  0.53043047  0.55931584  0.17169121     0.85200
C62         C  0.44494869  0.44958458  0.18120588     0.91400
C63         C  0.34818424  0.33320721  0.84441477     0.87100
C64         C  0.32804399  0.36141184  0.86537171    -0.53100
C65         C  0.34943144  0.38438689  0.88256440     0.10000
C66         C  0.38852243  0.37706342  0.87764384     0.21000
C67         C  0.37388938  0.35376515  0.82060954    -0.53900
C68         C  0.39508185  0.37631277  0.83840692     0.10100
C69         C  0.37275364  0.31563508  0.87236901    -0.53400
C70         C  0.39373399  0.33939575  0.88972305     0.10700
H71         H  0.29955006  0.36271851  0.86646055     0.15200
H72         H  0.40584504  0.39612476  0.89140633     0.01000
H73         H  0.37680578  0.34887172  0.79278716     0.15500
H74         H  0.37330850  0.28794502  0.87845658     0.15300
C75         C  0.67498511  0.34944146  0.84191617     0.87100
C76         C  0.64548050  0.37254235  0.82591000    -0.53100
C77         C  0.62624505  0.38998884  0.85045179     0.10000
C78         C  0.63859418  0.38354372  0.88800244     0.21000
C79         C  0.69701508  0.37539802  0.86447629    -0.53900
C80         C  0.67765333  0.39340364  0.88829455     0.10100
C81         C  0.65590401  0.32567751  0.86896948    -0.53400
C82         C  0.63719681  0.34398309  0.89322152     0.10700
H83         H  0.63992445  0.37410089  0.79809046     0.15200
H84         H  0.62265431  0.39745644  0.90789099     0.01000
H85         H  0.72483181  0.38066501  0.86166152     0.15500
H86         H  0.65788543  0.29732472  0.86934665     0.15300
C87         C  0.65542613  0.67174686  0.84670450     0.87100
C88         C  0.63470994  0.64458038  0.82469355    -0.53100
C89         C  0.61140720  0.62488334  0.84351439     0.10000
C90         C  0.61047803  0.63471140  0.88233665     0.21000
C91         C  0.62649585  0.69381442  0.86517855    -0.53900
C92         C  0.60281980  0.67378664  0.88339635     0.10100
C93         C  0.67210917  0.65018611  0.87689542    -0.53400
C94         C  0.64822491  0.63097924  0.89533170     0.10700
H95         H  0.63841724  0.64116754  0.79673986     0.15200
H96         H  0.59129308  0.61973140  0.89827832     0.01000
H97         H  0.62443360  0.72208722  0.86317804     0.15500
H98         H  0.69951844  0.65095518  0.88447792     0.15300
C99         C  0.33170813  0.65622324  0.84115075     0.87100
C100        C  0.31284669  0.62938303  0.86575942    -0.53100
C101        C  0.33569013  0.60947618  0.88506916     0.10000
C102        C  0.37433536  0.61796082  0.87810968     0.21000
C103        C  0.35612852  0.67756940  0.86604443    -0.53900
C104        C  0.37839947  0.65708221  0.88544987     0.10100
C105        C  0.35715760  0.63355378  0.81923581    -0.53400
C106        C  0.37943960  0.61348804  0.83856871     0.10700
H107        H  0.28469045  0.62601988  0.86799865     0.15200
H108        H  0.39260357  0.60219213  0.89429294     0.01000
H109        H  0.35550971  0.70589611  0.86809536     0.15500
H110        H  0.35746009  0.63343743  0.79081789     0.15300
O111        O  0.31822552  0.52972421  0.03594189    -0.72300
O112        O  0.32789458  0.45874724  0.96104112    -0.73300
O113        O  0.32237851  0.53166039  0.96304169    -0.61900
O114        O  0.32413931  0.45555642  0.03411737    -0.70300
O115        O  0.26610179  0.45022732  0.03233485    -0.69900
O116        O  0.26436153  0.52859551  0.95862458    -0.61100
O117        O  0.26996556  0.45312889  0.95707410    -0.73700
O118        O  0.26000485  0.52603873  0.03410025    -0.72400
Cu119      Cu  0.32489614  0.49405081  0.99877842     1.04600
Cu120      Cu  0.26284030  0.48932310  0.99549388     1.04300
C121        C  0.28806318  0.54003567  0.04631161     0.93900
C122        C  0.30088269  0.44473161  0.94692945     0.93000
C123        C  0.29373249  0.54221642  0.94917306     0.85200
C124        C  0.29602249  0.44010612  0.04406052     0.91400
O125        O  0.52662171  0.73570140  0.04043294    -0.72300
O126        O  0.45198744  0.73357536  0.96223458    -0.73300
O127        O  0.45047933  0.73120635  0.03788465    -0.61900
O128        O  0.52829344  0.73897202  0.96489237    -0.70300
O129        O  0.52992691  0.68099290  0.96269761    -0.69900
O130        O  0.45580589  0.67349981  0.03606247    -0.61100
O131        O  0.45622950  0.67580976  0.96262526    -0.73700
O132        O  0.52986904  0.67797587  0.03661039    -0.72400
Cu133      Cu  0.48923088  0.73709749  0.00143624     1.04600
Cu134      Cu  0.49311938  0.67532580  0.99945835     1.04300
C135        C  0.53997460  0.70659921  0.05064924     0.93900
C136        C  0.44223075  0.70364305  0.95045759     0.93000
C137        C  0.44093031  0.70078670  0.04836254     0.85200
C138        C  0.54092920  0.71080220  0.95201273     0.91400
O139        O  0.71647540  0.55072207  0.96898572    -0.72300
O140        O  0.71192453  0.47110627  0.04021539    -0.73300
O141        O  0.70939989  0.47580986  0.96464822    -0.61900
O142        O  0.71893498  0.54668317  0.04411835    -0.70300
O143        O  0.66069866  0.54717823  0.04659307    -0.69900
O144        O  0.65170912  0.48482689  0.96545446    -0.61100
O145        O  0.65366751  0.47472152  0.03761359    -0.73700
O146        O  0.65873293  0.55631422  0.97462392    -0.72400
Cu147      Cu  0.71657333  0.51085884  0.00452255     1.04600
Cu148      Cu  0.65450296  0.51592407  0.00629246     1.04300
C149        C  0.68766128  0.56597484  0.96077707     0.93900
C150        C  0.68138569  0.45992353  0.04902201     0.93000
C151        C  0.67855589  0.47020112  0.95218204     0.85200
C152        C  0.69042501  0.55798665  0.05777340     0.91400
O153        O  0.55487852  0.33310307  0.95943687    -0.72300
O154        O  0.48341011  0.34451040  0.03282991    -0.73300
O155        O  0.55648198  0.34137098  0.03243604    -0.61900
O156        O  0.48027568  0.33463330  0.95999039    -0.70300
O157        O  0.47844716  0.27686413  0.96527460    -0.69900
O158        O  0.55420567  0.28390966  0.04036968    -0.61100
O159        O  0.47837576  0.28700871  0.03999630    -0.73700
O160        O  0.55464388  0.27529342  0.96482410    -0.72400
Cu161      Cu  0.51882420  0.34012456  0.99576302     1.04600
Cu162      Cu  0.51639799  0.27850462  0.00280185     1.04300
C163        C  0.56696934  0.30327366  0.95076964     0.93900
C164        C  0.46969126  0.31836038  0.04827859     0.93000
C165        C  0.56672973  0.31391140  0.04867334     0.85200
C166        C  0.46682249  0.30506365  0.95145233     0.91400
O167        O  0.53898139  0.45647846  0.84544296    -0.72300
O168        O  0.46097335  0.52231100  0.85838725    -0.73300
O169        O  0.46608202  0.45204746  0.84062711    -0.61900
O170        O  0.53500223  0.52698507  0.86235576    -0.70300
O171        O  0.53878920  0.54175467  0.80627609    -0.69900
O172        O  0.46625653  0.46641758  0.78432892    -0.61100
O173        O  0.46262729  0.53896963  0.80272236    -0.73700
O174        O  0.54279506  0.46853482  0.78889295    -0.72400
Cu175      Cu  0.50018726  0.48909997  0.85337609     1.04600
Cu176      Cu  0.50274591  0.50448053  0.79328610     1.04300
C177        C  0.55368119  0.45176166  0.81593233     0.93900
C178        C  0.44883720  0.54057288  0.83327318     0.93000
C179        C  0.45483169  0.44744714  0.80949534     0.85200
C180        C  0.54840330  0.54573405  0.83812668     0.91400
C181        C  0.66074430  0.15741742  0.66369459     0.87100
C182        C  0.64260219  0.12745310  0.68450398    -0.53100
C183        C  0.62378165  0.10538074  0.66381354     0.10000
C184        C  0.62413242  0.11479439  0.62517624     0.21000
C185        C  0.68265151  0.13780790  0.63558652    -0.53900
C186        C  0.66285430  0.11604236  0.61524595     0.10100
C187        C  0.63055822  0.17533434  0.64293399    -0.53400
C188        C  0.61125284  0.15248316  0.62303923     0.10700
H189        H  0.64567430  0.12234214  0.71221415     0.15200
H190        H  0.60850231  0.09629902  0.60887468     0.01000
H191        H  0.71070242  0.14141888  0.63161323     0.15500
H192        H  0.62479670  0.20310321  0.64451310     0.15300
C193        C  0.66374037  0.15953193  0.34833102     0.87100
C194        C  0.63725545  0.13383590  0.33091440    -0.53100
C195        C  0.61544603  0.11739847  0.35435069     0.10000
C196        C  0.62200919  0.12814272  0.39228900     0.21000
C197        C  0.64046025  0.18460219  0.36993394    -0.53900
C198        C  0.61869277  0.16822779  0.39301922     0.10100
C199        C  0.68306400  0.13668631  0.37622649    -0.53400
C200        C  0.66080930  0.12033360  0.39907606     0.10700
H201        H  0.63645180  0.12887290  0.30298522     0.15200
H202        H  0.60411503  0.11411216  0.41042316     0.01000
H203        H  0.64101353  0.21289215  0.36695474     0.15500
H204        H  0.71118177  0.13309760  0.37806972     0.15300
C205        C  0.33402876  0.15747942  0.65586050     0.87100
C206        C  0.36400495  0.13557654  0.67304051    -0.53100
C207        C  0.38506496  0.11900536  0.64922838     0.10000
C208        C  0.37408917  0.12538269  0.61127981     0.21000
C209        C  0.35288302  0.18205844  0.62959861    -0.53900
C210        C  0.37345246  0.16492088  0.60626847     0.10100
C211        C  0.31414834  0.13040085  0.63227886    -0.53400
C212        C  0.33573376  0.11370347  0.60899200     0.10700
H213        H  0.36846114  0.13410560  0.70106171     0.15200
H214        H  0.39147836  0.11206856  0.59210344     0.01000
H215        H  0.34903306  0.21021738  0.62867788     0.15500
H216        H  0.28644149  0.12411805  0.63403404     0.15300
C217        C  0.33601526  0.16186563  0.34567317     0.87100
C218        C  0.36290181  0.17924937  0.37112169    -0.53100
C219        C  0.38523044  0.15573488  0.38680477     0.10000
C220        C  0.37871619  0.11788884  0.37567409     0.21000
C221        C  0.35901068  0.14069088  0.31993542    -0.53900
C222        C  0.38119332  0.11756835  0.33562182     0.10100
C223        C  0.31739560  0.13350164  0.36856567    -0.53400
C224        C  0.34020849  0.11063026  0.38422798     0.10700
H225        H  0.36362667  0.20713813  0.37642610     0.15200
H226        H  0.39702689  0.09959686  0.38893351     0.01000
H227        H  0.35778286  0.14380332  0.29170315     0.15500
H228        H  0.28936842  0.13168407  0.37284337     0.15300
O229        O  0.46466055  0.22277269  0.46507501    -0.72300
O230        O  0.53674326  0.22181375  0.54405154    -0.73300
O231        O  0.54056617  0.21335254  0.46970753    -0.61900
O232        O  0.46131370  0.23002537  0.54026396    -0.70300
O233        O  0.45416877  0.17239783  0.54236196    -0.69900
O234        O  0.53341106  0.15634376  0.47890568    -0.61100
O235        O  0.52725452  0.16489847  0.55064978    -0.73700
O236        O  0.45997680  0.16514106  0.46991073    -0.72400
Cu237      Cu  0.50099967  0.22425307  0.50447095     1.04600
Cu238      Cu  0.49338012  0.16296370  0.51056355     1.04300
C239        C  0.45097507  0.19382300  0.45505544     0.93900
C240        C  0.54352420  0.19287255  0.55951815     0.93000
C241        C  0.55016405  0.18155689  0.46490642     0.85200
C242        C  0.44506662  0.20297617  0.55190496     0.91400
C243        C  0.66112636  0.84753224  0.34433136     0.87100
C244        C  0.63037461  0.82955819  0.36451826    -0.53100
C245        C  0.60886364  0.85274687  0.38148861     0.10000
C246        C  0.62017194  0.89085772  0.37712356     0.21000
C247        C  0.64308054  0.87493563  0.32029861    -0.53900
C248        C  0.62202748  0.89769653  0.33791856     0.10100
C249        C  0.68003319  0.86961172  0.37296298    -0.53400
C250        C  0.65810931  0.89216313  0.38989714     0.10700
H251        H  0.62618018  0.80144907  0.36516510     0.15200
H252        H  0.60268325  0.90958158  0.39095129     0.01000
H253        H  0.64797318  0.87711071  0.29239586     0.15500
H254        H  0.70730083  0.86688679  0.38060398     0.15300
C255        C  0.33650239  0.84258655  0.33564431     0.87100
C256        C  0.31622253  0.86343687  0.36404212    -0.53100
C257        C  0.33769738  0.87960223  0.38778958     0.10000
C258        C  0.37683697  0.87378033  0.38085424     0.21000
C259        C  0.36192815  0.87028888  0.31919632    -0.53900
C260        C  0.38301480  0.88645124  0.34351239     0.10100
C261        C  0.36121882  0.81767318  0.35605769    -0.53400
C262        C  0.38248733  0.83435489  0.37929552     0.10700
H263        H  0.28774062  0.86510885  0.36506093     0.15200
H264        H  0.39423767  0.88671795  0.40039594     0.01000
H265        H  0.36323374  0.87686778  0.29168537     0.15500
H266        H  0.36389224  0.78999971  0.35015786     0.15300
C267        C  0.33388409  0.84174706  0.65704459     0.87100
C268        C  0.35427530  0.82376110  0.62684242    -0.53100
C269        C  0.37159959  0.84697523  0.60550875     0.10000
C270        C  0.36750887  0.88513559  0.61639539     0.21000
C271        C  0.36264896  0.86390161  0.67580255    -0.53900
C272        C  0.38022292  0.88652218  0.65439487     0.10100
C273        C  0.31003735  0.86910562  0.63873278    -0.53400
C274        C  0.32812449  0.89180930  0.61781660     0.10700
H275        H  0.35460870  0.79566267  0.62267821     0.15200
H276        H  0.38064896  0.90350972  0.59818892     0.01000
H277        H  0.36986697  0.86180762  0.70309557     0.15500
H278        H  0.28186921  0.87103648  0.64297639     0.15300
C279        C  0.66170251  0.83142150  0.65420036     0.87100
C280        C  0.63631246  0.81105925  0.62973314    -0.53100
C281        C  0.61411552  0.83178187  0.61097453     0.10000
C282        C  0.61965910  0.87107951  0.61790050     0.21000
C283        C  0.68093347  0.85737582  0.62950731    -0.53900
C284        C  0.65863479  0.87810506  0.61057841     0.10100
C285        C  0.63714753  0.85462917  0.67664290    -0.53400
C286        C  0.61547919  0.87590012  0.65760585     0.10700
H287        H  0.63541344  0.78296464  0.62657160     0.15200
H288        H  0.60249837  0.88815663  0.60209225     0.01000
H289        H  0.70935969  0.85898843  0.62735328     0.15500
H290        H  0.63756113  0.85475379  0.70505254     0.15300
O291        O  0.67679531  0.03687798  0.54415348    -0.72300
O292        O  0.67417984  0.96557446  0.46996498    -0.73300
O293        O  0.67490514  0.96352675  0.54259703    -0.61900
O294        O  0.67535093  0.03875093  0.47164464    -0.70300
O295        O  0.73359642  0.03896808  0.46948014    -0.69900
O296        O  0.73310529  0.96082650  0.54329039    -0.61100
O297        O  0.73239161  0.96329201  0.46798734    -0.73700
O298        O  0.73512392  0.03679432  0.54503519    -0.72400
Cu299      Cu  0.67361137  0.00119816  0.50717370     1.04600
Cu300      Cu  0.73589858  0.99993547  0.50647280     1.04300
C301        C  0.70579326  0.04884971  0.55604851     0.93900
C302        C  0.70230910  0.95288072  0.45705862     0.93000
C303        C  0.70316109  0.94956445  0.55392097     0.85200
C304        C  0.70389489  0.05119270  0.45927031     0.91400
O305        O  0.54273022  0.97500956  0.63910614    -0.72300
O306        O  0.46686827  0.04488090  0.65192277    -0.73300
O307        O  0.54042402  0.04483667  0.65876413    -0.61900
O308        O  0.46925028  0.97357097  0.63296907    -0.70300
O309        O  0.46365343  0.95802853  0.68871607    -0.69900
O310        O  0.53636936  0.03065163  0.71502734    -0.61100
O311        O  0.46068046  0.03079535  0.70781436    -0.73700
O312        O  0.53915753  0.95787738  0.69450357    -0.72400
Cu313      Cu  0.50487803  0.01010966  0.64399833     1.04600
Cu314      Cu  0.49975276  0.99377716  0.70371302     1.04300
C315        C  0.55319491  0.95550588  0.66406845     0.93900
C316        C  0.45159852  0.04935950  0.68128396     0.93000
C317        C  0.55032678  0.04858944  0.69044970     0.85200
C318        C  0.45533680  0.95434059  0.65651490     0.91400
O319        O  0.32173308  0.95774384  0.46373996    -0.72300
O320        O  0.32087546  0.03339057  0.53450399    -0.73300
O321        O  0.31792411  0.96038577  0.53716351    -0.61900
O322        O  0.32395875  0.03142783  0.46113295    -0.70300
O323        O  0.26583248  0.03525385  0.45890854    -0.69900
O324        O  0.25965730  0.95951710  0.53379058    -0.61100
O325        O  0.26267309  0.03529341  0.53447396    -0.73700
O326        O  0.26374221  0.95952867  0.45828874    -0.72400
Cu327      Cu  0.32287592  0.99564587  0.49918155     1.04600
Cu328      Cu  0.26070154  0.99744689  0.49623658     1.04300
C329        C  0.29351358  0.94655354  0.44945184     0.93900
C330        C  0.29232374  0.04631408  0.54622304     0.93000
C331        C  0.28826089  0.94866985  0.54769181     0.85200
C332        C  0.29617328  0.04511856  0.44821597     0.91400
O333        O  0.46167342  0.96635042  0.27900278    -0.72300
O334        O  0.53468448  0.04429811  0.28388491    -0.73300
O335        O  0.53743961  0.96928060  0.27388888    -0.61900
O336        O  0.45852422  0.04037202  0.29005326    -0.70300
O337        O  0.46370173  0.02949271  0.34692665    -0.69900
O338        O  0.54238697  0.96461981  0.33153450    -0.61100
O339        O  0.53769394  0.03705456  0.34134357    -0.73700
O340        O  0.46849185  0.95809806  0.33603472    -0.72400
Cu341      Cu  0.49802524  0.00546378  0.27947661     1.04600
Cu342      Cu  0.50333124  0.99712517  0.34070942     1.04300
C343        C  0.45311483  0.95048220  0.30722924     0.93900
C344        C  0.54772971  0.05287562  0.31354952     0.93000
C345        C  0.55243117  0.95611336  0.30092762     0.85200
C346        C  0.44797009  0.04444090  0.32162345     0.91400
O347        O  0.52135034  0.85038045  0.52892760    -0.72300
O348        O  0.45317020  0.83052379  0.45402387    -0.73300
O349        O  0.44866068  0.83848758  0.52662232    -0.61900
O350        O  0.52603391  0.84112448  0.45569970    -0.70300
O351        O  0.53367543  0.78387323  0.46121953    -0.69900
O352        O  0.45784787  0.78196095  0.53613480    -0.61100
O353        O  0.45805019  0.77312582  0.46157824    -0.73700
O354        O  0.53259246  0.79379481  0.53605455    -0.72400
Cu355      Cu  0.48709115  0.84188388  0.49104314     1.04600
Cu356      Cu  0.49592419  0.78096954  0.49895341     1.04300
C357        C  0.53770118  0.82587548  0.54454391     0.93900
C358        C  0.44409111  0.79941849  0.44605731     0.93000
C359        C  0.44110341  0.81013334  0.54285965     0.85200
C360        C  0.54195036  0.81304201  0.44684434     0.91400
C361        C  0.84835155  0.33161014  0.65511150     0.87100
C362        C  0.87577416  0.30749947  0.63699728    -0.53100
C363        C  0.90002486  0.32562147  0.61770855     0.10000
C364        C  0.89430188  0.36507396  0.61753778     0.21000
C365        C  0.87052134  0.35855932  0.67592270    -0.53900
C366        C  0.89445888  0.37608570  0.65587447     0.10100
C367        C  0.83210444  0.35300419  0.62449908    -0.53400
C368        C  0.85658221  0.37036825  0.60510459     0.10700
H369        H  0.87654357  0.27925173  0.64011374     0.15200
H370        H  0.91387847  0.37945042  0.60130485     0.01000
H371        H  0.86697057  0.36354458  0.70363458     0.15500
H372        H  0.80453407  0.35384493  0.61752220     0.15300
C373        C  0.84947630  0.33747704  0.33939586     0.87100
C374        C  0.88007986  0.35600979  0.31934347    -0.53100
C375        C  0.90323246  0.37288243  0.34088290     0.10000
C376        C  0.89418333  0.37001072  0.37944390     0.21000
C377        C  0.86846494  0.31344902  0.36646254    -0.53900
C378        C  0.89143942  0.33109289  0.38765251     0.10100
C379        C  0.83295045  0.36711475  0.36172218    -0.53400
C380        C  0.85691776  0.38422721  0.38226809     0.10700
H381        H  0.88380107  0.35617263  0.29130748     0.15200
H382        H  0.91335113  0.38391609  0.39656279     0.01000
H383        H  0.86269033  0.28579062  0.36979656     0.15500
H384        H  0.80541051  0.37446030  0.36035165     0.15300
C385        C  0.83761167  0.66438606  0.34090324     0.87100
C386        C  0.86513122  0.68313854  0.36442881    -0.53100
C387        C  0.88770418  0.66068334  0.38102513     0.10000
C388        C  0.88049479  0.62206203  0.37303168     0.21000
C389        C  0.85978220  0.64116895  0.31615092    -0.53900
C390        C  0.88207254  0.61872156  0.33295860     0.10100
C391        C  0.81925425  0.63799957  0.36585169    -0.53400
C392        C  0.84174858  0.61620759  0.38300839     0.10700
H393        H  0.86652183  0.71136035  0.36736299     0.15200
H394        H  0.89932920  0.60479017  0.38660551     0.01000
H395        H  0.85797618  0.64251718  0.28782010     0.15500
H396        H  0.79131328  0.63659546  0.37087650     0.15300
C397        C  0.84673104  0.66118338  0.66328727     0.87100
C398        C  0.87118221  0.63617816  0.68459515    -0.53100
C399        C  0.89101923  0.61446931  0.66400379     0.10000
C400        C  0.88428955  0.61937332  0.62490864     0.21000
C401        C  0.87205865  0.68023693  0.63722434    -0.53900
C402        C  0.89147603  0.65787985  0.61721046     0.10100
C403        C  0.82486698  0.63658390  0.63951292    -0.53400
C404        C  0.84457305  0.61433369  0.61981051     0.10700
H405        H  0.87296844  0.63630014  0.71293538     0.15200
H406        H  0.90073297  0.60218896  0.60835139     0.01000
H407        H  0.87470644  0.70823428  0.63419984     0.15500
H408        H  0.79630768  0.63674531  0.63848338     0.15300
O409        O  0.96304762  0.67362504  0.53321224    -0.72300
O410        O  0.03908344  0.67747613  0.46172785    -0.73300
O411        O  0.03634607  0.67539814  0.53511905    -0.61900
O412        O  0.96506720  0.67510685  0.45946886    -0.70300
O413        O  0.96136379  0.73295148  0.46034682    -0.69900
O414        O  0.03749376  0.73336109  0.53672292    -0.61100
O415        O  0.03755150  0.73546100  0.46057939    -0.73700
O416        O  0.96158057  0.73151443  0.53622145    -0.72400
Cu417      Cu  0.00092323  0.67368105  0.49724146     1.04600
Cu418      Cu  0.99944178  0.73559672  0.49843483     1.04300
C419        C  0.95079563  0.70154059  0.54686981     0.93900
C420        C  0.05059517  0.70658627  0.44973551     0.93000
C421        C  0.04803711  0.70371233  0.54848090     0.85200
C422        C  0.95148420  0.70337192  0.44788172     0.91400
O423        O  0.03691951  0.45535893  0.73801415    -0.72300
O424        O  0.95973103  0.53097463  0.73760940    -0.73300
O425        O  0.96068438  0.45468889  0.73493690    -0.61900
O426        O  0.03596369  0.53145808  0.74061844    -0.70300
O427        O  0.03654394  0.53186050  0.68262396    -0.69900
O428        O  0.96394310  0.45881323  0.67724386    -0.61100
O429        O  0.96346734  0.53213159  0.67984505    -0.73700
O430        O  0.03724513  0.45825425  0.68016495    -0.72400
Cu431      Cu  0.99821851  0.49300710  0.74013215     1.04600
Cu432      Cu  0.00037609  0.49529704  0.67832522     1.04300
C433        C  0.04882268  0.44472487  0.70852199     0.93900
C434        C  0.95002280  0.54380703  0.70808765     0.93000
C435        C  0.95088179  0.44460681  0.70448406     0.85200
C436        C  0.04740589  0.54408757  0.71170751     0.91400
O437        O  0.03936139  0.53766593  0.33817265    -0.72300
O438        O  0.97267351  0.45667462  0.33377696    -0.73300
O439        O  0.04503958  0.46499581  0.32803342    -0.61900
O440        O  0.96557882  0.52876696  0.34535919    -0.70300
O441        O  0.95903289  0.54003822  0.28875457    -0.69900
O442        O  0.04002129  0.47117777  0.27050418    -0.61100
O443        O  0.96456350  0.46551258  0.27696681    -0.73700
O444        O  0.03471900  0.54581115  0.28092492    -0.72400
Cu445      Cu  0.00589462  0.49695407  0.33809196     1.04600
Cu446      Cu  0.99937835  0.50606269  0.27706636     1.04300
C447        C  0.04830509  0.55414857  0.31037470     0.93900
C448        C  0.95815505  0.44807557  0.30485230     0.93000
C449        C  0.05450593  0.45674151  0.29719833     0.85200
C450        C  0.94932330  0.54418272  0.32061644     0.91400
O451        O  0.96950754  0.31360003  0.53804063    -0.72300
O452        O  0.03929595  0.31989745  0.46165412    -0.73300
O453        O  0.96593010  0.31552236  0.46474087    -0.61900
O454        O  0.04269404  0.31813471  0.53503531    -0.70300
O455        O  0.04602636  0.26031469  0.53644167    -0.69900
O456        O  0.96982182  0.25787075  0.45997608    -0.61100
O457        O  0.04554862  0.26225378  0.46042605    -0.73700
O458        O  0.96972045  0.25559536  0.53595045    -0.72400
Cu459      Cu  0.00427577  0.31848374  0.49990802     1.04600
Cu460      Cu  0.00792226  0.25669691  0.49817490     1.04300
C461        C  0.95827279  0.28413455  0.54922713     0.93900
C462        C  0.05357248  0.29265988  0.44869090     0.93000
C463        C  0.95585264  0.28694297  0.45062080     0.85200
C464        C  0.05626953  0.29029644  0.54764861     0.91400
O465        O  0.86875873  0.53098195  0.46976503    -0.72300
O466        O  0.85401524  0.45047551  0.53248039    -0.73300
O467        O  0.85467722  0.45954350  0.46040336    -0.61900
O468        O  0.86710514  0.52135441  0.54233759    -0.70300
O469        O  0.81036930  0.53508413  0.54145230    -0.69900
O470        O  0.79676806  0.46599418  0.46149547    -0.61100
O471        O  0.79684812  0.46102498  0.53653720    -0.73700
O472        O  0.81121340  0.54016831  0.46600758    -0.72400
Cu473      Cu  0.86286778  0.49031669  0.50115981     1.04600
Cu474      Cu  0.80149878  0.50106131  0.50133231     1.04300
C475        C  0.84286225  0.54806895  0.45742825     0.93900
C476        C  0.82389466  0.44295203  0.54503155     0.93000
C477        C  0.82423144  0.45190251  0.44840834     0.85200
C478        C  0.84110564  0.53809334  0.55490388     0.91400
C479        C  0.16150920  0.33764039  0.66183275     0.87100
C480        C  0.17987216  0.36632103  0.63933643    -0.53100
C481        C  0.15693736  0.38599529  0.62040647     0.10000
C482        C  0.11854741  0.37556712  0.62493264     0.21000
C483        C  0.13401166  0.35847091  0.68394532    -0.53900
C484        C  0.11137933  0.37815592  0.66403265     0.10100
C485        C  0.13895824  0.31642138  0.63511001    -0.53400
C486        C  0.11651092  0.33675228  0.61577414     0.10700
H487        H  0.20768715  0.37221599  0.63906522     0.15200
H488        H  0.10049584  0.39201742  0.60896362     0.01000
H489        H  0.13254063  0.35731743  0.71227728     0.15500
H490        H  0.14096308  0.28828325  0.63180074     0.15300
C491        C  0.16302737  0.66251008  0.34286817     0.87100
C492        C  0.13592338  0.63704166  0.32602940    -0.53100
C493        C  0.11687341  0.61815964  0.35001308     0.10000
C494        C  0.12675151  0.62617555  0.38784846     0.21000
C495        C  0.14075898  0.68515527  0.36843141    -0.53900
C496        C  0.12203410  0.66557048  0.39213179     0.10100
C497        C  0.18542403  0.63897456  0.36751153    -0.53400
C498        C  0.16632990  0.61975358  0.39038115     0.10700
H499        H  0.13262282  0.63416854  0.29797894     0.15200
H500        H  0.11095836  0.61116239  0.40715573     0.01000
H501        H  0.14069201  0.71357308  0.36830793     0.15500
H502        H  0.21370106  0.63666609  0.36787522     0.15300
C503        C  0.15112249  0.65575801  0.66277698     0.87100
C504        C  0.16719824  0.62810713  0.63760042    -0.53100
C505        C  0.14243584  0.60915049  0.61971689     0.10000
C506        C  0.10469435  0.61933340  0.62843280     0.21000
C507        C  0.12665638  0.67799713  0.63874696    -0.53900
C508        C  0.10231096  0.65847767  0.62090957     0.10100
C509        C  0.12577664  0.63421562  0.68635198    -0.53400
C510        C  0.10135629  0.61557476  0.66797065     0.10700
H511        H  0.19497698  0.62347357  0.63404259     0.15200
H512        H  0.08490183  0.60356861  0.61383451     0.01000
H513        H  0.12844697  0.70627187  0.63641164     0.15500
H514        H  0.12656944  0.63453927  0.71474602     0.15300
C515        C  0.15835127  0.34216500  0.33810721     0.87100
C516        C  0.13314646  0.32049903  0.36178294    -0.53100
C517        C  0.10886822  0.34040533  0.37887198     0.10000
C518        C  0.11209818  0.37943818  0.37117158     0.21000
C519        C  0.13385231  0.36384817  0.31384961    -0.53900
C520        C  0.10955848  0.38301612  0.33155723     0.10100
C521        C  0.17470694  0.36950919  0.36349019    -0.53400
C522        C  0.14996108  0.38882027  0.38082404     0.10700
H523        H  0.13453875  0.29224555  0.36453288     0.15200
H524        H  0.09220498  0.39547497  0.38514842     0.01000
H525        H  0.13456035  0.36263343  0.28547815     0.15500
H526        H  0.20254296  0.37284985  0.36832637     0.15300
O527        O  0.15373384  0.53026521  0.54133094    -0.72300
O528        O  0.15806546  0.45606321  0.46832857    -0.73300
O529        O  0.16293966  0.45797488  0.54130649    -0.61900
O530        O  0.14751435  0.52740535  0.46815580    -0.70300
O531        O  0.20495341  0.53718784  0.46310781    -0.69900
O532        O  0.22096903  0.46282579  0.53852779    -0.61100
O533        O  0.21575725  0.46304878  0.46305119    -0.73700
O534        O  0.21153517  0.53762856  0.53822735    -0.72400
Cu535      Cu  0.15384844  0.49266623  0.50501102     1.04600
Cu536      Cu  0.21561346  0.50048870  0.50061983     1.04300
C537        C  0.18181502  0.54567046  0.55156468     0.93900
C538        C  0.18707418  0.44845196  0.45333171     0.93000
C539        C  0.19335107  0.44911566  0.55206822     0.85200
C540        C  0.17312845  0.54288916  0.45349716     0.91400
C541        C  0.24941266  0.25108764  0.25102308    -0.01900
C542        C  0.74943812  0.25134626  0.25555470    -0.01900
C543        C  0.24630834  0.75205795  0.24576538    -0.01900
C544        C  0.25315389  0.24880700  0.75314557    -0.01900
C545        C  0.75062889  0.25320045  0.74720146    -0.01900
C546        C  0.74802721  0.75666686  0.25204753    -0.01900
C547        C  0.24658884  0.74741101  0.74657720    -0.01900
C548        C  0.15399977  0.16635009  0.15959625     0.87100
C549        C  0.12959936  0.14104027  0.18031315    -0.53100
C550        C  0.10897511  0.12041202  0.15929486     0.10000
C551        C  0.11472130  0.12676079  0.12006891     0.21000
C552        C  0.17473725  0.14237529  0.13447200    -0.53900
C553        C  0.15434227  0.12135045  0.11380036     0.10100
C554        C  0.12824513  0.18676951  0.13530248    -0.53400
C555        C  0.10804728  0.16600674  0.11432599     0.10700
H556        H  0.12874379  0.13985971  0.20866713     0.15200
H557        H  0.09718529  0.11009761  0.10434859     0.01000
H558        H  0.20328919  0.14207097  0.13330793     0.15500
H559        H  0.12522230  0.21488494  0.13442478     0.15300
C560        C  0.15284784  0.16599377  0.83631952     0.87100
C561        C  0.13380992  0.14346519  0.80839326    -0.53100
C562        C  0.10977031  0.12087264  0.82195180     0.10000
C563        C  0.10693845  0.12242774  0.86172268     0.21000
C564        C  0.12257368  0.18400177  0.85704356    -0.53900
C565        C  0.09858150  0.16053233  0.87011657     0.10100
C566        C  0.16843164  0.13948706  0.86249259    -0.53400
C567        C  0.14420943  0.11668859  0.87567650     0.10700
H568        H  0.13881012  0.14543762  0.78048621     0.15200
H569        H  0.08746170  0.10353363  0.87256547     0.01000
H570        H  0.11978520  0.21191479  0.86095279     0.15500
H571        H  0.19607892  0.13899307  0.86959229     0.15300
C572        C  0.83582202  0.15702955  0.16713224     0.87100
C573        C  0.81801822  0.12926497  0.14300546    -0.53100
C574        C  0.84162117  0.11121695  0.12291436     0.10000
C575        C  0.87973454  0.12248955  0.12849170     0.21000
C576        C  0.86341475  0.13579798  0.18818199    -0.53900
C577        C  0.88658514  0.11831058  0.16751190     0.10100
C578        C  0.85772751  0.18020607  0.14181568    -0.53400
C579        C  0.88037011  0.16188063  0.12117911     0.10700
H580        H  0.79010303  0.12381761  0.14195786     0.15200
H581        H  0.89877484  0.10711019  0.11290387     0.01000
H582        H  0.86498467  0.13551521  0.21654437     0.15500
H583        H  0.85503796  0.20846182  0.14007461     0.15300
C584        C  0.16403348  0.85522171  0.16436921     0.87100
C585        C  0.13804866  0.88005583  0.18326607    -0.53100
C586        C  0.12153252  0.90273133  0.16103611     0.10000
C587        C  0.13231662  0.89868304  0.12282106     0.21000
C588        C  0.14125548  0.83726484  0.13574494    -0.53900
C589        C  0.12483659  0.86047984  0.11399705     0.10100
C590        C  0.18918617  0.87994898  0.14418588    -0.53400
C591        C  0.17237913  0.90209639  0.12193632     0.10700
H592        H  0.13225664  0.87958936  0.21091040     0.15200
H593        H  0.11874345  0.91750469  0.10517498     0.01000
H594        H  0.13898802  0.80908663  0.13281510     0.15500
H595        H  0.21768140  0.87854793  0.14584219     0.15300
C596        C  0.84779233  0.83602329  0.16154683     0.87100
C597        C  0.87224880  0.86068834  0.18304497    -0.53100
C598        C  0.89437522  0.88038688  0.16265635     0.10000
C599        C  0.88987400  0.87388331  0.12342288     0.21000
C600        C  0.82875576  0.86051140  0.13539176    -0.53900
C601        C  0.85103437  0.88036118  0.11559741     0.10100
C602        C  0.87371411  0.81449325  0.13843964    -0.53400
C603        C  0.89527059  0.83452951  0.11804199     0.10700
H604        H  0.87203512  0.86215574  0.21139552     0.15200
H605        H  0.90767376  0.89072278  0.10774497     0.01000
H606        H  0.80033482  0.86182150  0.13300572     0.15500
H607        H  0.87537297  0.78626811  0.13743735     0.15300
O608        O  0.95959472  0.03957513  0.23861128    -0.72300
O609        O  0.03816917  0.96746730  0.23476367    -0.73300
O610        O  0.03583908  0.04303961  0.23559150    -0.61900
O611        O  0.96207182  0.96369157  0.23694991    -0.70300
O612        O  0.96187765  0.96599661  0.17907012    -0.69900
O613        O  0.03230264  0.04237480  0.17780775    -0.61100
O614        O  0.03521241  0.96962408  0.17687701    -0.73700
O615        O  0.95915340  0.03933186  0.18061616    -0.72400
Cu616      Cu  0.99892587  0.00338909  0.23880972     1.04600
Cu617      Cu  0.99696626  0.00434395  0.17692192     1.04300
C618        C  0.94754380  0.05116113  0.20956057     0.93900
C619        C  0.04929407  0.95772966  0.20476019     0.93000
C620        C  0.04571978  0.05489015  0.20571836     0.85200
C621        C  0.95090585  0.95214561  0.20744212     0.91400
C622        C  0.16766327  0.85215957  0.83076796     0.87100
C623        C  0.14698375  0.83473473  0.86115885    -0.53100
C624        C  0.13015960  0.85819986  0.88219570     0.10000
C625        C  0.13499761  0.89636389  0.87085389     0.21000
C626        C  0.13939229  0.87451070  0.81163148    -0.53900
C627        C  0.12267991  0.89794125  0.83265498     0.10100
C628        C  0.19211839  0.87943750  0.84865773    -0.53400
C629        C  0.17455246  0.90253633  0.86947714     0.10700
H630        H  0.14617314  0.80667698  0.86567918     0.15200
H631        H  0.12143084  0.91469352  0.88871517     0.01000
H632        H  0.13219783  0.87223922  0.78434722     0.15500
H633        H  0.22023831  0.88117518  0.84397952     0.15300
O634        O  0.16768007  0.96776057  0.94809106    -0.72300
O635        O  0.13999281  0.03235990  0.02475298    -0.73300
O636        O  0.15414084  0.03908083  0.95312603    -0.61900
O637        O  0.15368611  0.96026345  0.01941577    -0.70300
O638        O  0.20881833  0.97129460  0.03548250    -0.69900
O639        O  0.21101688  0.04848383  0.96219853    -0.61100
O640        O  0.19580839  0.04535564  0.03598954    -0.73700
O641        O  0.22413855  0.97387132  0.96172624    -0.72400
Cu642      Cu  0.15215158  0.99959898  0.98601947     1.04600
Cu643      Cu  0.21219863  0.01016920  0.99928760     1.04300
C644        C  0.19988219  0.96000551  0.94295386     0.93900
C645        C  0.16295152  0.04945667  0.04217141     0.93000
C646        C  0.18231516  0.05587043  0.94628135     0.85200
C647        C  0.18045091  0.95339584  0.03823711     0.91400
C648        C  0.82242839  0.15098718  0.83990274     0.87100
C649        C  0.79503096  0.13030922  0.86168851    -0.53100
C650        C  0.80956224  0.10882122  0.88611713     0.10000
C651        C  0.84980146  0.10919343  0.88607109     0.21000
C652        C  0.84646739  0.16961146  0.86706602    -0.53900
C653        C  0.86081643  0.14736743  0.89117388     0.10100
C654        C  0.84643805  0.12227113  0.82398439    -0.53400
C655        C  0.86056711  0.10044259  0.84865772     0.10700
H656        H  0.76677151  0.13276126  0.85824443     0.15200
H657        H  0.86162508  0.09110398  0.90561271     0.01000
H658        H  0.85205622  0.19749094  0.86655012     0.15500
H659        H  0.85258479  0.11954075  0.79653711     0.15300
O660        O  0.02800317  0.19983020  0.03431866    -0.72300
O661        O  0.94858365  0.21228175  0.96199319    -0.73300
O662        O  0.95184333  0.19827644  0.03605889    -0.61900
O663        O  0.02523607  0.21514430  0.96030509    -0.70300
O664        O  0.02433387  0.15826580  0.94885905    -0.69900
O665        O  0.95434217  0.14151024  0.02390460    -0.61100
O666        O  0.95085872  0.15505898  0.95284841    -0.73700
O667        O  0.02857411  0.14346211  0.02041593    -0.72400
Cu668      Cu  0.98841368  0.20867514  0.99858672     1.04600
Cu669      Cu  0.98964114  0.14789439  0.98621009     1.04300
C670        C  0.04084586  0.16899534  0.03801601     0.93900
C671        C  0.93667298  0.18466722  0.94692943     0.93000
C672        C  0.94133081  0.16684240  0.04123195     0.85200
C673        C  0.03612861  0.18897439  0.94254855     0.91400
C674        C  0.83609096  0.83874344  0.84706358     0.87100
C675        C  0.81833102  0.86520625  0.87232965    -0.53100
C676        C  0.84210395  0.88411677  0.89162486     0.10000
C677        C  0.88053424  0.87498333  0.88399317     0.21000
C678        C  0.86165491  0.86151932  0.82512726    -0.53900
C679        C  0.88507721  0.88057880  0.84441410     0.10100
C680        C  0.85991299  0.81639337  0.87109867    -0.53400
C681        C  0.88364425  0.83535345  0.88978881     0.10700
H682        H  0.79025300  0.86881849  0.87504301     0.15200
H683        H  0.89843427  0.89020908  0.90091395     0.01000
H684        H  0.86088001  0.86270182  0.79673995     0.15500
H685        H  0.85879875  0.78799406  0.87234111     0.15300
O686        O  0.04871349  0.79273672  0.95939532    -0.72300
O687        O  0.97117364  0.80123203  0.03350685    -0.73300
O688        O  0.97293714  0.80009685  0.95815861    -0.61900
O689        O  0.04675674  0.79340149  0.03540726    -0.70300
O690        O  0.04972369  0.85133565  0.03450561    -0.69900
O691        O  0.98284547  0.85739932  0.95580625    -0.61100
O692        O  0.97646247  0.85891932  0.02848003    -0.73700
O693        O  0.05527229  0.85031416  0.96185770    -0.72400
Cu694      Cu  0.00973005  0.79451144  0.99668927     1.04600
Cu695      Cu  0.01629347  0.85618848  0.99526954     1.04300
C696        C  0.06413345  0.82083864  0.94908292     0.93900
C697        C  0.96120879  0.83221457  0.04155953     0.93000
C698        C  0.96695827  0.83023969  0.94469688     0.85200
C699        C  0.05963826  0.82203963  0.04719226     0.91400
O700        O  0.83015956  0.96442275  0.96753537    -0.72300
O701        O  0.83010123  0.03189649  0.04655910    -0.73300
O702        O  0.83250913  0.95897907  0.04041855    -0.61900
O703        O  0.82856178  0.03811080  0.97439143    -0.70300
O704        O  0.77013726  0.03669197  0.97312055    -0.69900
O705        O  0.77438651  0.95644702  0.04397490    -0.61100
O706        O  0.77182129  0.03188052  0.04804866    -0.73700
O707        O  0.77198382  0.96079231  0.96867396    -0.72400
Cu708      Cu  0.83208572  0.99832075  0.00705774     1.04600
Cu709      Cu  0.76978587  0.99629866  0.00840298     1.04300
C710        C  0.80153074  0.95115719  0.95594880     0.93900
C711        C  0.80136184  0.04322921  0.05952640     0.93000
C712        C  0.80476989  0.94534090  0.05332498     0.85200
C713        C  0.79939975  0.05069511  0.96401446     0.91400
O714        O  0.95138131  0.03177854  0.78899337    -0.72300
O715        O  0.03817744  0.97128407  0.80141918    -0.73300
O716        O  0.96345990  0.95914041  0.80505239    -0.61900
O717        O  0.02591870  0.04411904  0.78583671    -0.70300
O718        O  0.02194597  0.05745934  0.84223810    -0.69900
O719        O  0.96945017  0.97020068  0.86175555    -0.61100
O720        O  0.04082949  0.98807121  0.85695327    -0.73700
O721        O  0.95102764  0.03956105  0.84648288    -0.72400
Cu722      Cu  0.99473795  0.00106278  0.79306823     1.04600
Cu723      Cu  0.99584271  0.01417380  0.85362939     1.04300
C724        C  0.93730579  0.04473955  0.81640282     0.93900
C725        C  0.05335217  0.97085181  0.83134172     0.93000
C726        C  0.95732236  0.95132327  0.83708073     0.85200
C727        C  0.03270721  0.06454629  0.81152302     0.91400
C728        C  0.75175080  0.74940431  0.75114710    -0.01900
C729        C  0.83477331  0.91178013  0.91794945    -0.15800
C730        C  0.80319639  0.92390617  0.92820250    -0.31000
H731        H  0.85810455  0.92292909  0.93004379     0.13200
H732        H  0.77904286  0.91342019  0.91721271     0.13800
C733        C  0.91070432  0.81969239  0.91306998    -0.15800
C734        C  0.94209039  0.83554643  0.91585744    -0.31000
H735        H  0.90412113  0.79725204  0.92929924     0.13200
H736        H  0.94813243  0.85737002  0.89873697     0.13800
C737        C  0.91037223  0.90608870  0.82850272    -0.15800
C738        C  0.93632690  0.92065716  0.84755223    -0.31000
H739        H  0.90620096  0.91455751  0.80168798     0.13200
H740        H  0.94101161  0.91222890  0.87406773     0.13800
C741        C  0.77616478  0.81850000  0.82144515    -0.12700
C742        C  0.81301673  0.81578490  0.82363922     0.09400
C743        C  0.82971868  0.79047246  0.80288296    -0.12700
C744        C  0.81064240  0.76874747  0.78055447    -0.12700
C745        C  0.77391842  0.77255901  0.77649407     0.09400
C746        C  0.75700443  0.79705377  0.79849119    -0.12700
H747        H  0.76178259  0.83724341  0.83684322     0.13400
H748        H  0.85799417  0.78718876  0.80426626     0.13400
H749        H  0.82530031  0.74880078  0.76702354     0.13400
H750        H  0.72869765  0.80003553  0.79734808     0.13400
C751        C  0.88729422  0.15561918  0.91858223    -0.15800
C752        C  0.90601070  0.18544755  0.92267092    -0.31000
H753        H  0.89373663  0.13354409  0.93538700     0.13200
H754        H  0.90007684  0.20885534  0.90766901     0.13800
C755        C  0.78964061  0.08583067  0.91036538    -0.15800
C756        C  0.80153259  0.08292066  0.94323628    -0.31000
H757        H  0.77028057  0.06763143  0.90000266     0.13200
H758        H  0.82142644  0.10145140  0.95207019     0.13800
C759        C  0.88658125  0.07227612  0.84311734    -0.15800
C760        C  0.90557184  0.06693006  0.81401857    -0.31000
H761        H  0.89300499  0.05709046  0.86633496     0.13200
H762        H  0.89980549  0.08069811  0.78983523     0.13800
C763        C  0.20774316  0.93367590  0.91569524    -0.15800
C764        C  0.18901084  0.93450671  0.88586957    -0.31000
H765        H  0.22213324  0.91028521  0.92313715     0.13200
H766        H  0.17410254  0.95814708  0.88026709     0.13800
C767        C  0.09424225  0.92151916  0.81996549    -0.15800
C768        C  0.08540986  0.95041777  0.83785932    -0.31000
H769        H  0.07946205  0.91416856  0.79675133     0.13200
H770        H  0.10074633  0.95843951  0.86038200     0.13800
C771        C  0.10858246  0.85058576  0.91362699    -0.15800
C772        C  0.09147562  0.82050469  0.92120812    -0.31000
H773        H  0.10388965  0.87325912  0.93005251     0.13200
H774        H  0.09522545  0.79722036  0.90543736     0.13800
C775        C  0.92144111  0.90638715  0.17372959    -0.15800
C776        C  0.92518803  0.92257936  0.20488160    -0.31000
H777        H  0.93893313  0.91435795  0.15271071     0.13200
H778        H  0.90911531  0.91526779  0.22718418     0.13800
C779        C  0.84141076  0.90633683  0.08844220    -0.15800
C780        C  0.80877850  0.91699974  0.07965220    -0.31000
H781        H  0.86377451  0.91813206  0.07522103     0.13200
H782        H  0.78566751  0.90596399  0.09216615     0.13800
C783        C  0.92135719  0.82004411  0.09268898    -0.15800
C784        C  0.93121999  0.83928789  0.06484157    -0.31000
H785        H  0.93324618  0.79467799  0.09760852     0.13200
H786        H  0.91808994  0.86390926  0.05960752     0.13800
C787        C  0.19004890  0.92437167  0.09554407    -0.15800
C788        C  0.17660414  0.92452134  0.06310366    -0.31000
H789        H  0.21037111  0.94278182  0.10341469     0.13200
H790        H  0.15642448  0.90542802  0.05645156     0.13800
C791        C  0.09365257  0.92808348  0.16994356    -0.15800
C792        C  0.07882114  0.93280155  0.20152003    -0.31000
H793        H  0.08403584  0.94339472  0.14795106     0.13200
H794        H  0.08799091  0.91870401  0.22443247     0.13800
C795        C  0.10205753  0.85277724  0.08359419    -0.15800
C796        C  0.08596034  0.82232217  0.07592429    -0.31000
H797        H  0.09655700  0.87544871  0.06730024     0.13200
H798        H  0.09078446  0.79883935  0.09121589     0.13800
C799        C  0.91361479  0.15801055  0.06654984    -0.15800
C800        C  0.90353122  0.17766030  0.09391687    -0.31000
H801        H  0.90194251  0.13235360  0.06278941     0.13200
H802        H  0.91337171  0.20417972  0.09711949     0.13800
C803        C  0.91709757  0.09726797  0.17863258    -0.15800
C804        C  0.91996405  0.07842397  0.20820972    -0.31000
H805        H  0.93700069  0.09394522  0.15852297     0.13200
H806        H  0.90117928  0.08109219  0.22938856     0.13800
C807        C  0.83442176  0.08312462  0.09713863    -0.15800
C808        C  0.80291516  0.07022459  0.08743963    -0.31000
H809        H  0.85779121  0.07274573  0.08461267     0.13200
H810        H  0.77877057  0.07995027  0.09893700     0.13800
C811        C  0.18090162  0.08385203  0.91960032    -0.15800
C812        C  0.15083134  0.08881060  0.90159268    -0.31000
H813        H  0.20384949  0.10021872  0.91524556     0.13200
H814        H  0.12844784  0.07184252  0.90674195     0.13800
C815        C  0.06670456  0.16785400  0.89097347    -0.15800
C816        C  0.06339559  0.19315888  0.91510525    -0.31000
H817        H  0.04685991  0.14731669  0.89016879     0.13200
H818        H  0.08246900  0.21428638  0.91693968     0.13800
C819        C  0.08748359  0.09666136  0.80142400    -0.15800
C820        C  0.05276850  0.09710091  0.80739026    -0.31000
H821        H  0.09979599  0.07388184  0.78975381     0.13200
H822        H  0.04201544  0.11956736  0.82114133     0.13800
C823        C  0.16974684  0.09637964  0.08776127    -0.15800
C824        C  0.14983123  0.07368501  0.06932109    -0.31000
H825        H  0.19799580  0.09693097  0.08352274     0.13200
H826        H  0.12177000  0.07239572  0.07345939     0.13800
C827        C  0.07302415  0.08298092  0.20227083    -0.15800
C828        C  0.08219034  0.09385383  0.16985186    -0.31000
H829        H  0.08547724  0.09393491  0.22535925     0.13200
H830        H  0.06884487  0.08188809  0.14777418     0.13800
C831        C  0.08121074  0.18007338  0.08924971    -0.15800
C832        C  0.07039593  0.16080332  0.06182779    -0.31000
H833        H  0.06987309  0.20572722  0.09382073     0.13200
H834        H  0.08307029  0.13597235  0.05664571     0.13800
C835        C  0.20428428  0.79928059  0.75260387    -0.12700
C836        C  0.22587534  0.77427833  0.76931085     0.09400
C837        C  0.22991499  0.77734669  0.80600696    -0.12700
C838        C  0.21125697  0.80243336  0.82505282    -0.12700
C839        C  0.18807763  0.82578943  0.80845134     0.09400
C840        C  0.18558109  0.82427714  0.77166293    -0.12700
H841        H  0.20165974  0.79918422  0.72437655     0.13400
H842        H  0.24800138  0.76115400  0.82054489     0.13400
H843        H  0.21499218  0.80364272  0.85312507     0.13400
H844        H  0.16988983  0.84247663  0.75684856     0.13400
C845        C  0.81784466  0.77862906  0.18222329    -0.12700
C846        C  0.82129221  0.81532743  0.18388284     0.09400
C847        C  0.79772909  0.83353480  0.20563998    -0.12700
C848        C  0.77289074  0.81571854  0.22627203    -0.12700
C849        C  0.77146053  0.77873947  0.22675788     0.09400
C850        C  0.79324617  0.76089720  0.20284747    -0.12700
H851        H  0.83372935  0.76284353  0.16518606     0.13400
H852        H  0.79851080  0.86186915  0.20658175     0.13400
H853        H  0.75520410  0.83135995  0.24173581     0.13400
H854        H  0.79227816  0.73259234  0.20131049     0.13400
C855        C  0.78322167  0.20283035  0.82963236    -0.12700
C856        C  0.80464808  0.17678786  0.81506837     0.09400
C857        C  0.80745908  0.17525645  0.77838373    -0.12700
C858        C  0.78999343  0.19961105  0.75723733    -0.12700
C859        C  0.76972197  0.22685888  0.77183204     0.09400
C860        C  0.76566518  0.22697071  0.80858554    -0.12700
H861        H  0.77962085  0.20416790  0.85771289     0.13400
H862        H  0.82267617  0.15538945  0.76543527     0.13400
H863        H  0.79265608  0.19752056  0.72910876     0.13400
H864        H  0.74840003  0.24499784  0.82174903     0.13400
C865        C  0.20734526  0.24399046  0.80210026    -0.12700
C866        C  0.23054685  0.22684351  0.77888894     0.09400
C867        C  0.23209887  0.19002567  0.78071281    -0.12700
C868        C  0.20771359  0.17125991  0.80039334    -0.12700
C869        C  0.18143007  0.18840440  0.81966175     0.09400
C870        C  0.18256847  0.22512261  0.82162605    -0.12700
H871        H  0.20676316  0.27232426  0.80311436     0.13400
H872        H  0.25157290  0.17516103  0.76663236     0.13400
H873        H  0.20862754  0.14291678  0.79964970     0.13400
H874        H  0.16406874  0.23964936  0.83722909     0.13400
C875        C  0.20205929  0.80224622  0.24150694    -0.12700
C876        C  0.22424027  0.77839432  0.22410676     0.09400
C877        C  0.22772355  0.78211318  0.18749319    -0.12700
C878        C  0.20778438  0.80646375  0.16905722    -0.12700
C879        C  0.18438975  0.82890508  0.18632620     0.09400
C880        C  0.18208214  0.82672575  0.22300344    -0.12700
H881        H  0.19991977  0.80158313  0.26975829     0.13400
H882        H  0.24636488  0.76705679  0.17255086     0.13400
H883        H  0.21104260  0.80818745  0.14094487     0.13400
H884        H  0.16544277  0.84380267  0.23799867     0.13400
C885        C  0.82883850  0.20189511  0.21476538    -0.12700
C886        C  0.81244709  0.17935615  0.19070953     0.09400
C887        C  0.77542852  0.17947616  0.18901320    -0.12700
C888        C  0.75578231  0.20224930  0.21001868    -0.12700
C889        C  0.77228842  0.22614165  0.23304778     0.09400
C890        C  0.80928244  0.22403251  0.23613974    -0.12700
H891        H  0.85723874  0.20224173  0.21721502     0.13400
H892        H  0.76121237  0.16284316  0.17112520     0.13400
H893        H  0.72737546  0.20186316  0.20772540     0.13400
H894        H  0.82381943  0.23899116  0.25522208     0.13400
C895        C  0.18132461  0.22510313  0.18034048    -0.12700
C896        C  0.17890367  0.18833240  0.18278474     0.09400
C897        C  0.20207119  0.17143487  0.20617559    -0.12700
C898        C  0.22566644  0.19052043  0.22726493    -0.12700
C899        C  0.22630612  0.22755028  0.22651384     0.09400
C900        C  0.20461048  0.24407657  0.20142529    -0.12700
H901        H  0.16579584  0.24002376  0.16212206     0.13400
H902        H  0.20207724  0.14312814  0.20794099     0.13400
H903        H  0.24327157  0.17579721  0.24381973     0.13400
H904        H  0.20492821  0.27233350  0.19891633     0.13400
C905        C  0.15595680  0.41505788  0.40868768    -0.15800
C906        C  0.18677665  0.42311359  0.42403620    -0.31000
H907        H  0.13229548  0.42787253  0.41803628     0.13200
H908        H  0.21128123  0.41172928  0.41510575     0.13800
C909        C  0.16795212  0.29275998  0.29595076    -0.23900
C910        C  0.18307730  0.31873859  0.31712549     0.09400
C911        C  0.22005297  0.32167934  0.31756677    -0.12700
C912        C  0.24088706  0.29977384  0.29672931    -0.12700
C913        C  0.22561327  0.27479710  0.27407593     0.09400
C914        C  0.18863502  0.27079490  0.27554036    -0.12700
H915        H  0.13966225  0.28920568  0.29542698     0.13400
H916        H  0.23336073  0.34088301  0.33345264     0.13400
H917        H  0.26921304  0.30279625  0.29770905     0.13400
H918        H  0.17496117  0.25041406  0.26147258     0.13400
C919        C  0.17976304  0.57308986  0.57891383    -0.15800
C920        C  0.14872045  0.58098248  0.59373810    -0.31000
H921        H  0.20353664  0.58706889  0.58621449     0.13200
H922        H  0.12544607  0.56666280  0.58541763     0.13800
C923        C  0.16246845  0.70285418  0.70789679    -0.12700
C924        C  0.17658191  0.67834889  0.68444169     0.09400
C925        C  0.21355210  0.67552366  0.68280983    -0.12700
C926        C  0.23532289  0.69717939  0.70314520    -0.12700
C927        C  0.22126048  0.72308141  0.72537419     0.09400
C928        C  0.18417313  0.72425510  0.72837668    -0.12700
H929        H  0.13421087  0.70523994  0.71064519     0.13400
H930        H  0.22632592  0.65691613  0.66598660     0.13400
H931        H  0.26357393  0.69428637  0.70092898     0.13400
H932        H  0.17122694  0.74128396  0.74674120     0.13400
C933        C  0.18235524  0.59455719  0.41514724    -0.15800
C934        C  0.16383359  0.56646636  0.42487895    -0.31000
H935        H  0.20841499  0.59945024  0.42581261     0.13200
H936        H  0.13846112  0.56133016  0.41282350     0.13800
C937        C  0.16676310  0.70677020  0.29284718    -0.12700
C938        C  0.18419773  0.68375917  0.31580538     0.09400
C939        C  0.22108983  0.68085687  0.31229605    -0.12700
C940        C  0.23980530  0.70197303  0.28914627    -0.12700
C941        C  0.22290834  0.72722862  0.26831006     0.09400
C942        C  0.18563617  0.72766113  0.26901352    -0.12700
H943        H  0.13834884  0.70871899  0.29350993     0.13400
H944        H  0.23668930  0.66268029  0.32706147     0.13400
H945        H  0.26818690  0.69948288  0.28840789     0.13400
H946        H  0.17057860  0.74405657  0.25155493     0.13400
C947        C  0.16524548  0.41671336  0.59859283    -0.15800
C948        C  0.19491682  0.42244922  0.58020393    -0.31000
H949        H  0.14298047  0.43407173  0.59456944     0.13200
H950        H  0.21806383  0.40619513  0.58357519     0.13800
C951        C  0.22306657  0.31599549  0.68282489    -0.12700
C952        C  0.18589579  0.31425853  0.68403182     0.09400
C953        C  0.17084051  0.28898119  0.70613308    -0.12700
C954        C  0.19173008  0.26760506  0.72749477    -0.12700
C955        C  0.22889169  0.27131934  0.72870937     0.09400
C956        C  0.24397567  0.29465260  0.70433029    -0.12700
H957        H  0.23679567  0.33334627  0.66529940     0.13400
H958        H  0.14253799  0.28561975  0.70676696     0.13400
H959        H  0.17809580  0.24778947  0.74241203     0.13400
H960        H  0.27232958  0.29694771  0.70253431     0.13400
C961        C  0.07954609  0.29726958  0.42005288    -0.15800
C962        C  0.08157926  0.32856324  0.40388476    -0.31000
H963        H  0.09727985  0.27610299  0.41337221     0.13200
H964        H  0.06281594  0.34868343  0.41112657     0.13800
C965        C  0.09177923  0.32617947  0.58738102    -0.15800
C966        C  0.08349238  0.29381387  0.57577678    -0.31000
H967        H  0.07854968  0.34823184  0.57521916     0.13200
H968        H  0.09562299  0.27072788  0.58711666     0.13800
C969        C  0.08176385  0.42929885  0.29415028    -0.15800
C970        C  0.07937819  0.40216596  0.31655248    -0.31000
H971        H  0.10546444  0.43413810  0.27906583     0.13200
H972        H  0.05514106  0.39925045  0.33141438     0.13800
C973        C  0.07495533  0.58269282  0.31241450    -0.15800
C974        C  0.08972654  0.59085149  0.34333653    -0.31000
H975        H  0.08251581  0.59653617  0.28875885     0.13200
H976        H  0.08110561  0.57657497  0.36640123     0.13800
C977        C  0.07319766  0.57322933  0.71029771    -0.15800
C978        C  0.07219520  0.59410388  0.68190232    -0.31000
H979        H  0.09425203  0.57507472  0.72943060     0.13200
H980        H  0.05014992  0.59125360  0.66393911     0.13800
C981        C  0.07640274  0.41687645  0.70618490    -0.15800
C982        C  0.08156907  0.40091902  0.67515467    -0.31000
H983        H  0.09304080  0.41103121  0.72854033     0.13200
H984        H  0.06363583  0.40750611  0.65398977     0.13800
C985        C  0.07501765  0.67046678  0.59577925    -0.15800
C986        C  0.07372338  0.70088335  0.57784806    -0.31000
H987        H  0.05549466  0.65058054  0.58956816     0.13200
H988        H  0.09186958  0.72213535  0.58343651     0.13800
C989        C  0.07894831  0.70578360  0.42286533    -0.15800
C990        C  0.09998752  0.67754875  0.42181330    -0.31000
H991        H  0.08054177  0.72605997  0.40297962     0.13200
H992        H  0.09740365  0.65843832  0.44278820     0.13800
C993        C  0.91761434  0.66680922  0.58958739    -0.15800
C994        C  0.92440439  0.69851221  0.57553014    -0.31000
H995        H  0.93195368  0.64448727  0.57943663     0.13200
H996        H  0.91109280  0.72174911  0.58492817     0.13800
C997        C  0.91856196  0.58872535  0.67452148    -0.15800
C998        C  0.92320249  0.57240825  0.70557753    -0.31000
H999        H  0.93555022  0.58105584  0.65306676     0.13200
H1000       H  0.90717636  0.57912367  0.72804612     0.13800
C1001       C  0.82960753  0.58881705  0.59439996    -0.15800
C1002       C  0.84833637  0.56049662  0.58527806    -0.31000
H1003       H  0.80466415  0.59445826  0.58171076     0.13200
H1004       H  0.87240986  0.55436403  0.59924522     0.13800
C1005       C  0.79763377  0.66831030  0.70819993    -0.12700
C1006       C  0.82281035  0.68426956  0.68623495     0.09400
C1007       C  0.82347068  0.72116710  0.68520159    -0.12700
C1008       C  0.80025462  0.74103840  0.70541110    -0.12700
C1009       C  0.77585317  0.72526934  0.72846228     0.09400
C1010       C  0.77419421  0.68827855  0.72838575    -0.12700
H1011       H  0.79564051  0.64003235  0.70922314     0.13400
H1012       H  0.84166286  0.73547686  0.66902139     0.13400
H1013       H  0.80193898  0.76931264  0.70374103     0.13400
H1014       H  0.75468502  0.67426225  0.74340172     0.13400
C1015       C  0.91678243  0.66960928  0.40559283    -0.15800
C1016       C  0.92380633  0.70096359  0.42028111    -0.31000
H1017       H  0.93280102  0.64740542  0.41337582     0.13200
H1018       H  0.90874399  0.72401826  0.41320740     0.13800
C1019       C  0.85136262  0.57699450  0.43342715    -0.15800
C1020       C  0.82940322  0.58996767  0.40917990    -0.31000
H1021       H  0.87813125  0.58662728  0.43512307     0.13200
H1022       H  0.80225200  0.58104577  0.40824034     0.13800
C1023       C  0.90694959  0.59457182  0.31462822    -0.15800
C1024       C  0.91886027  0.56571735  0.33104162    -0.31000
H1025       H  0.91697774  0.60163847  0.28897940     0.13200
H1026       H  0.90747135  0.55840045  0.35600698     0.13800
C1027       C  0.82935972  0.71473606  0.29862116    -0.12700
C1028       C  0.81371732  0.68974990  0.32066492     0.09400
C1029       C  0.77657966  0.68896118  0.32222295    -0.12700
C1030       C  0.75616491  0.71109828  0.30114338    -0.12700
C1031       C  0.77177161  0.73418155  0.27683088     0.09400
C1032       C  0.80897663  0.73696032  0.27776496    -0.12700
H1033       H  0.85775335  0.71695594  0.29737296     0.13400
H1034       H  0.76250424  0.67108591  0.33892123     0.13400
H1035       H  0.72777351  0.70923900  0.30282231     0.13400
H1036       H  0.82308032  0.75627455  0.26262326     0.13400
C1037       C  0.85152730  0.41545270  0.40430331    -0.15800
C1038       C  0.82167177  0.42548434  0.42007767    -0.31000
H1039       H  0.87568353  0.42936773  0.41060927     0.13200
H1040       H  0.79681003  0.41255327  0.41455809     0.13800
C1041       C  0.90933694  0.31809100  0.41959911    -0.15800
C1042       C  0.92880009  0.28880529  0.42240214    -0.31000
H1043       H  0.91148828  0.33751668  0.44023854     0.13200
H1044       H  0.92777719  0.26876464  0.40232692     0.13800
C1045       C  0.93364524  0.39478223  0.33056869    -0.15800
C1046       C  0.93298323  0.41836844  0.30443946    -0.31000
H1047       H  0.95475794  0.39632399  0.34972618     0.13200
H1048       H  0.91205502  0.41795112  0.28506944     0.13800
C1049       C  0.79567583  0.29801620  0.33425969    -0.12700
C1050       C  0.82187330  0.31789016  0.31733082     0.09400
C1051       C  0.82094217  0.31919274  0.28047283    -0.12700
C1052       C  0.79661376  0.29922047  0.26147863    -0.12700
C1053       C  0.77293360  0.27613712  0.27827723     0.09400
C1054       C  0.77150279  0.27774623  0.31521768    -0.12700
H1055       H  0.79429729  0.29769649  0.36255963     0.13400
H1056       H  0.83870841  0.33542997  0.26564516     0.13400
H1057       H  0.79743123  0.30044355  0.23317603     0.13400
H1058       H  0.75195086  0.26342317  0.32991355     0.13400
C1059       C  0.91841951  0.40456481  0.66685865    -0.15800
C1060       C  0.92480925  0.41598721  0.69961160    -0.31000
H1061       H  0.93246698  0.41673005  0.64529191     0.13200
H1062       H  0.91199088  0.40414514  0.72207155     0.13800
C1063       C  0.84979162  0.39279674  0.57446294    -0.15800
C1064       C  0.82166476  0.41378531  0.57045985    -0.31000
H1065       H  0.87199159  0.39570399  0.55680793     0.13200
H1066       H  0.79921492  0.41187433  0.58789207     0.13800
C1067       C  0.93124099  0.31177698  0.59938537    -0.15800
C1068       C  0.93137565  0.28440842  0.57732332    -0.31000
H1069       H  0.95343370  0.32980005  0.59853653     0.13200
H1070       H  0.90987768  0.26564148  0.57690919     0.13800
C1071       C  0.78614256  0.31759884  0.67803442    -0.12700
C1072       C  0.82276723  0.31210390  0.67892112     0.09400
C1073       C  0.83627665  0.28953407  0.70467228    -0.12700
C1074       C  0.81393335  0.27124884  0.72724956    -0.12700
C1075       C  0.77698045  0.27434103  0.72439821     0.09400
C1076       C  0.76382335  0.29936924  0.70060979    -0.12700
H1077       H  0.77410434  0.33629902  0.66064728     0.13400
H1078       H  0.86443497  0.28613064  0.70741973     0.13400
H1079       H  0.82620272  0.25515366  0.74699968     0.13400
H1080       H  0.73577178  0.30403522  0.69883665     0.13400
C1081       C  0.59053366  0.90166646  0.67336789    -0.15800
C1082       C  0.58182201  0.93082003  0.65554224    -0.31000
H1083       H  0.57873332  0.89618047  0.69864695     0.13200
H1084       H  0.59530471  0.93650584  0.63117772     0.13800
C1085       C  0.66815312  0.90563432  0.58480333    -0.15800
C1086       C  0.70013497  0.91998313  0.57916313    -0.31000
H1087       H  0.64591582  0.91574661  0.57008417     0.13200
H1088       H  0.72325730  0.91056080  0.59291152     0.13800
C1089       C  0.58837598  0.81713343  0.58530538    -0.15800
C1090       C  0.56175137  0.83649249  0.57280570    -0.31000
H1091       H  0.59186603  0.79049437  0.57605263     0.13200
H1092       H  0.55737176  0.86262899  0.58269751     0.13800
C1093       C  0.68671742  0.77273973  0.67739658    -0.12700
C1094       C  0.68697483  0.80965694  0.67669643     0.09400
C1095       C  0.71122972  0.82704304  0.69845857    -0.12700
C1096       C  0.73319944  0.80844873  0.72129400    -0.12700
C1097       C  0.73085226  0.77161463  0.72407308     0.09400
C1098       C  0.70853955  0.75422035  0.70024029    -0.12700
H1099       H  0.66940234  0.75737292  0.66125679     0.13400
H1100       H  0.71291190  0.85535720  0.69803421     0.13400
H1101       H  0.75171462  0.82340584  0.73665425     0.13400
H1102       H  0.70682901  0.72589931  0.70052671     0.13400
C1103       C  0.40838617  0.91035333  0.66731553    -0.15800
C1104       C  0.42958158  0.92796242  0.64529632    -0.31000
H1105       H  0.41116454  0.91404559  0.69536131     0.13200
H1106       H  0.42810591  0.92384462  0.61737316     0.13800
C1107       C  0.39341736  0.83909022  0.57444362    -0.15800
C1108       C  0.41351288  0.81051653  0.57033296    -0.31000
H1109       H  0.39646921  0.86061080  0.55604558     0.13200
H1110       H  0.41159312  0.78876356  0.58857449     0.13800
C1111       C  0.28813372  0.92200747  0.57585186    -0.15800
C1112       C  0.31423773  0.92287072  0.59950429    -0.31000
H1113       H  0.27015516  0.89991163  0.57445228     0.13200
H1114       H  0.33177991  0.94542461  0.59952474     0.13800
C1115       C  0.28850921  0.79315509  0.66467915    -0.12700
C1116       C  0.31254005  0.81653520  0.68019856     0.09400
C1117       C  0.31391255  0.81744864  0.71704768    -0.12700
C1118       C  0.29308196  0.79515146  0.73733112    -0.12700
C1119       C  0.26996489  0.77056435  0.72205666     0.09400
C1120       C  0.26741250  0.77083459  0.68507597    -0.12700
H1121       H  0.28560670  0.79258375  0.63649152     0.13400
H1122       H  0.33002524  0.83590090  0.73107031     0.13400
H1123       H  0.29499176  0.79712364  0.76553801     0.13400
H1124       H  0.24863258  0.75470325  0.67133755     0.13400
C1125       C  0.41638356  0.79553951  0.41919778    -0.15800
C1126       C  0.41524377  0.81999662  0.39396448    -0.31000
H1127       H  0.39415799  0.77829315  0.42405581     0.13200
H1128       H  0.43803174  0.83699742  0.39067998     0.13800
C1129       C  0.41054722  0.91350996  0.33780393    -0.15800
C1130       C  0.42455480  0.92379214  0.30717724    -0.31000
H1131       H  0.42084577  0.92513726  0.36164004     0.13200
H1132       H  0.41483803  0.91338786  0.28258516     0.13800
C1133       C  0.32732933  0.90242122  0.41752069    -0.15800
C1134       C  0.29632258  0.91896428  0.42204311    -0.31000
H1135       H  0.34857789  0.90823270  0.43565292     0.13200
H1136       H  0.27423157  0.91391282  0.40473529     0.13800
C1137       C  0.28798317  0.79846008  0.32662041    -0.12700
C1138       C  0.31235886  0.82155604  0.31134159     0.09400
C1139       C  0.31470645  0.82216471  0.27455719    -0.12700
C1140       C  0.29383760  0.79973530  0.25405615    -0.12700
C1141       C  0.27021185  0.77551458  0.26941629     0.09400
C1142       C  0.26691612  0.77651422  0.30626266    -0.12700
H1143       H  0.28521709  0.79733992  0.35480565     0.13400
H1144       H  0.33299957  0.83915928  0.26120250     0.13400
H1145       H  0.29637102  0.80100422  0.22586411     0.13400
H1146       H  0.24770854  0.76094714  0.32008793     0.13400
C1147       C  0.66691272  0.91549208  0.41938530    -0.15800
C1148       C  0.69919625  0.92629186  0.42905669    -0.31000
H1149       H  0.64417724  0.92592612  0.43297176     0.13200
H1150       H  0.72258796  0.91684101  0.41590210     0.13800
C1151       C  0.57760031  0.84498345  0.40361424    -0.15800
C1152       C  0.57065903  0.81470910  0.42036391    -0.31000
H1153       H  0.56082791  0.86733837  0.40889248     0.13200
H1154       H  0.58707223  0.79189372  0.41615164     0.13800
C1155       C  0.60533997  0.92967672  0.32393901    -0.15800
C1156       C  0.58107379  0.93001990  0.29831964    -0.31000
H1157       H  0.60628924  0.95192355  0.34164948     0.13200
H1158       H  0.57854331  0.90829133  0.28022009     0.13800
C1159       C  0.72131951  0.82414703  0.32287301    -0.12700
C1160       C  0.68420813  0.82239139  0.32313358     0.09400
C1161       C  0.66799471  0.79809832  0.30076287    -0.12700
C1162       C  0.68782658  0.77657395  0.27879467    -0.12700
C1163       C  0.72495051  0.77957668  0.27684459     0.09400
C1164       C  0.74117987  0.80275749  0.30065722    -0.12700
H1165       H  0.73559120  0.84268254  0.33872002     0.13400
H1166       H  0.63959493  0.79576926  0.30017228     0.13400
H1167       H  0.67337393  0.75749211  0.26373570     0.13400
H1168       H  0.76958400  0.80506049  0.30130185     0.13400
C1169       C  0.41267269  0.16222869  0.41400817    -0.15800
C1170       C  0.42419343  0.19316682  0.42641012    -0.31000
H1171       H  0.42436582  0.13864866  0.42483232     0.13200
H1172       H  0.41399493  0.21757461  0.41597919     0.13800
C1173       C  0.29957764  0.07294980  0.42116506    -0.15800
C1174       C  0.33161899  0.08168679  0.40889133    -0.31000
H1175       H  0.27620495  0.08656859  0.41223866     0.13200
H1176       H  0.35420629  0.06708919  0.41837167     0.13800
C1177       C  0.40650614  0.09498663  0.31642554    -0.15800
C1178       C  0.41655645  0.06462932  0.33093171    -0.31000
H1179       H  0.41867604  0.10443505  0.29250573     0.13200
H1180       H  0.40308604  0.05525739  0.35416384     0.13800
C1181       C  0.32869499  0.21309964  0.30404764    -0.12700
C1182       C  0.31253806  0.18785181  0.32553673     0.09400
C1183       C  0.27542964  0.18601604  0.32490893    -0.12700
C1184       C  0.25572096  0.20689319  0.30182349    -0.12700
C1185       C  0.27213910  0.22960412  0.27759602     0.09400
C1186       C  0.30903632  0.23374880  0.28087695    -0.12700
H1187       H  0.35703892  0.21613529  0.30441968     0.13400
H1188       H  0.26103255  0.16803397  0.34126852     0.13400
H1189       H  0.22733294  0.20432859  0.30194043     0.13400
H1190       H  0.32334255  0.25293123  0.26572386     0.13400
C1191       C  0.42265547  0.07571206  0.68342549    -0.15800
C1192       C  0.41681555  0.09723715  0.65594925    -0.31000
H1193       H  0.40503155  0.07567128  0.70574025     0.13200
H1194       H  0.43488801  0.09608631  0.63400217     0.13800
C1195       C  0.39095713  0.18027924  0.57550673    -0.15800
C1196       C  0.41581707  0.20530904  0.57720220    -0.31000
H1197       H  0.38999996  0.16386789  0.55229295     0.13200
H1198       H  0.41836944  0.22205046  0.59999261     0.13800
C1199       C  0.32670618  0.08573121  0.58345688    -0.15800
C1200       C  0.29462438  0.07425016  0.57343556    -0.31000
H1201       H  0.34957507  0.07411639  0.57112343     0.13200
H1202       H  0.27086302  0.08535646  0.58447295     0.13800
C1203       C  0.31205612  0.22568609  0.72601525    -0.12700
C1204       C  0.27492127  0.22500859  0.72800200     0.09400
C1205       C  0.25715310  0.20204617  0.70493157    -0.12700
C1206       C  0.27546956  0.17934660  0.68268364    -0.12700
C1207       C  0.31252126  0.17917229  0.68195338     0.09400
C1208       C  0.33032995  0.20292464  0.70387932    -0.12700
H1209       H  0.32757560  0.24407192  0.74091152     0.13400
H1210       H  0.22866689  0.20129597  0.70459825     0.13400
H1211       H  0.26009534  0.16278724  0.66570409     0.13400
H1212       H  0.35878217  0.20451604  0.70318134     0.13400
C1213       C  0.67033927  0.09582142  0.42777334    -0.15800
C1214       C  0.70149477  0.07962147  0.43270862    -0.31000
H1215       H  0.64860190  0.08895015  0.44490281     0.13200
H1216       H  0.72415473  0.08588018  0.41662232     0.13800
C1217       C  0.59278804  0.18691928  0.41538290    -0.15800
C1218       C  0.58163358  0.17180484  0.44502978    -0.31000
H1219       H  0.58128426  0.21132926  0.40635629     0.13200
H1220       H  0.59430889  0.14806578  0.45416108     0.13800
C1221       C  0.57490413  0.08100617  0.31591427    -0.15800
C1222       C  0.58849702  0.08990742  0.34720279    -0.31000
H1223       H  0.58354780  0.09420459  0.29225900     0.13200
H1224       H  0.57862549  0.07644962  0.37026019     0.13800
C1225       C  0.72360473  0.18037678  0.32319850    -0.12700
C1226       C  0.68653279  0.18008745  0.32219575     0.09400
C1227       C  0.66991338  0.20165413  0.29727527    -0.12700
C1228       C  0.68933252  0.22417725  0.27562397    -0.12700
C1229       C  0.72636330  0.22647677  0.27843160     0.09400
C1230       C  0.74299072  0.20276864  0.30149589    -0.12700
H1231       H  0.73833211  0.16410060  0.34093870     0.13400
H1232       H  0.64149478  0.20160562  0.29507261     0.13400
H1233       H  0.67485821  0.23943782  0.25668341     0.13400
H1234       H  0.77142469  0.20233839  0.30342129     0.13400
C1235       C  0.70417328  0.07679073  0.58276356    -0.15800
C1236       C  0.67448635  0.09570117  0.58476299    -0.31000
H1237       H  0.72509920  0.07972238  0.60191537     0.13200
H1238       H  0.65425206  0.09187116  0.56498617     0.13800
C1239       C  0.60605211  0.07322311  0.67510394    -0.15800
C1240       C  0.57889233  0.07354912  0.69732397    -0.31000
H1241       H  0.60852570  0.05122365  0.65723051     0.13200
H1242       H  0.57445449  0.09544557  0.71483382     0.13800
C1243       C  0.57991423  0.16009557  0.60111773    -0.15800
C1244       C  0.57150220  0.19112582  0.58673239    -0.31000
H1245       H  0.56451748  0.13723587  0.59383400     0.13200
H1246       H  0.58689766  0.21436424  0.59262088     0.13800
C1247       C  0.67917013  0.18596515  0.72187344    -0.12700
C1248       C  0.68247463  0.18321765  0.68529435     0.09400
C1249       C  0.70684620  0.20516979  0.66844825    -0.12700
C1250       C  0.72887721  0.22734520  0.68756102    -0.12700
C1251       C  0.72588852  0.23014563  0.72435001     0.09400
C1252       C  0.70079257  0.20852371  0.74096432    -0.12700
H1253       H  0.65971484  0.17124447  0.73624869     0.13400
H1254       H  0.70974799  0.20435771  0.64028338     0.13400
H1255       H  0.74869008  0.24128082  0.67291857     0.13400
H1256       H  0.69782308  0.20928794  0.76913372     0.13400
C1257       C  0.40457001  0.66776238  0.91258764    -0.15800
C1258       C  0.41458052  0.70017374  0.92267553    -0.31000
H1259       H  0.41710151  0.64570122  0.92544521     0.13200
H1260       H  0.40296870  0.72330242  0.91089242     0.13800
C1261       C  0.40664319  0.59009864  0.82316526    -0.15800
C1262       C  0.41821949  0.56247566  0.84158738    -0.31000
H1263       H  0.41790243  0.59629738  0.79779785     0.13200
H1264       H  0.40528217  0.55563666  0.86592839     0.13800
C1265       C  0.32737488  0.58167978  0.91117700    -0.15800
C1266       C  0.29552210  0.57027278  0.92195127    -0.31000
H1267       H  0.35051903  0.56962870  0.92266968     0.13200
H1268       H  0.27150873  0.58111604  0.91107768     0.13800
C1269       C  0.27170306  0.67853694  0.81706335    -0.12700
C1270       C  0.30880086  0.67931433  0.81727761     0.09400
C1271       C  0.32560497  0.70125142  0.79282133    -0.12700
C1272       C  0.30640289  0.72157193  0.76905903    -0.12700
C1273       C  0.26924038  0.72258462  0.77005654     0.09400
C1274       C  0.25241520  0.69958565  0.79380034    -0.12700
H1275       H  0.25701789  0.66213448  0.83478975     0.13400
H1276       H  0.35406731  0.70207563  0.79155916     0.13400
H1277       H  0.32134946  0.73628939  0.75008850     0.13400
H1278       H  0.22395621  0.69869755  0.79499627     0.13400
C1279       C  0.65550558  0.60864392  0.92597997    -0.15800
C1280       C  0.68665649  0.59393416  0.93396547    -0.31000
H1281       H  0.63237049  0.60142170  0.94102110     0.13200
H1282       H  0.71017498  0.59999973  0.91905120     0.13800
C1283       C  0.57073869  0.68519259  0.90208232    -0.15800
C1284       C  0.56890021  0.71177421  0.92492933    -0.31000
H1285       H  0.54942971  0.66612257  0.90208792     0.13200
H1286       H  0.58944997  0.73153288  0.92614850     0.13800
C1287       C  0.57518456  0.57161109  0.84860554    -0.15800
C1288       C  0.58835272  0.59721237  0.82816564    -0.31000
H1289       H  0.58393936  0.56929602  0.87550201     0.13200
H1290       H  0.58144315  0.59850406  0.80061201     0.13800
C1291       C  0.71766574  0.68756826  0.82406766    -0.12700
C1292       C  0.68091535  0.69290682  0.82381659     0.09400
C1293       C  0.66728569  0.71684569  0.79944104    -0.12700
C1294       C  0.68932815  0.73493072  0.77633272    -0.12700
C1295       C  0.72609691  0.72877218  0.77552210     0.09400
C1296       C  0.73973497  0.70565382  0.80090781    -0.12700
H1297       H  0.72997102  0.66884107  0.84125005     0.13400
H1298       H  0.63924426  0.72169805  0.79827893     0.13400
H1299       H  0.67697971  0.75425752  0.75977687     0.13400
H1300       H  0.76781676  0.70110911  0.80239348     0.13400
C1301       C  0.69235303  0.42031840  0.91231277    -0.15800
C1302       C  0.67179200  0.44690707  0.92240562    -0.31000
H1303       H  0.71861708  0.41713484  0.92306979     0.13200
H1304       H  0.64624640  0.45022425  0.91007063     0.13800
C1305       C  0.59505549  0.41239778  0.84469834    -0.15800
C1306       C  0.58398175  0.42718621  0.81451863    -0.31000
H1307       H  0.58093521  0.41827709  0.86863317     0.13200
H1308       H  0.59771228  0.42266660  0.79008034     0.13800
C1309       C  0.61796985  0.33015733  0.92399766    -0.15800
C1310       C  0.59551446  0.30280847  0.92425801    -0.31000
H1311       H  0.61704671  0.34818268  0.94597340     0.13200
H1312       H  0.59505747  0.28383273  0.90316500     0.13800
C1313       C  0.73203499  0.32670875  0.81334380    -0.12700
C1314       C  0.69501089  0.32802577  0.81470327     0.09400
C1315       C  0.67597344  0.30719358  0.79097662    -0.12700
C1316       C  0.69314156  0.28484237  0.76766609    -0.12700
C1317       C  0.73010423  0.28105729  0.76857865     0.09400
C1318       C  0.74913384  0.30403825  0.79043906    -0.12700
H1319       H  0.74849058  0.34165426  0.83074838     0.13400
H1320       H  0.64748691  0.30787594  0.79077951     0.13400
H1321       H  0.67690744  0.27031194  0.74961584     0.13400
H1322       H  0.77760130  0.30289762  0.79123447     0.13400
C1323       C  0.42746916  0.39246550  0.82485951    -0.15800
C1324       C  0.42733147  0.42067145  0.80396743    -0.31000
H1325       H  0.45078451  0.38753750  0.84065406     0.13200
H1326       H  0.40435691  0.42713577  0.78832651     0.13800
C1327       C  0.33854533  0.41312980  0.90609736    -0.15800
C1328       C  0.30608913  0.41823141  0.91915953    -0.31000
H1329       H  0.35984527  0.42990683  0.91504245     0.13200
H1330       H  0.28400595  0.40222881  0.91081651     0.13800
C1331       C  0.41969828  0.33341457  0.91829026    -0.15800
C1332       C  0.43751314  0.30390766  0.92546796    -0.31000
H1333       H  0.42672820  0.35681053  0.93287118     0.13200
H1334       H  0.43132279  0.27967221  0.91198575     0.13800
C1335       C  0.32273753  0.27364129  0.82355655    -0.12700
C1336       C  0.32313736  0.31044270  0.82258427     0.09400
C1337       C  0.29956246  0.32725112  0.79959840    -0.12700
C1338       C  0.27663490  0.30827011  0.77811663    -0.12700
C1339       C  0.27741205  0.27134831  0.77733556     0.09400
C1340       C  0.30016872  0.25454857  0.80151047    -0.12700
H1341       H  0.34007840  0.25923396  0.84067401     0.13400
H1342       H  0.29871363  0.35557862  0.79841353     0.13400
H1343       H  0.25827018  0.32314673  0.76258024     0.13400
H1344       H  0.30092606  0.22622910  0.80278665     0.13400
C1345       C  0.41091793  0.40434990  0.15101529    -0.15800
C1346       C  0.42068117  0.41874024  0.18173661    -0.31000
H1347       H  0.42196802  0.41545856  0.12726839     0.13200
H1348       H  0.41119095  0.40823791  0.20638711     0.13800
C1349       C  0.41537621  0.30815968  0.08362294    -0.15800
C1350       C  0.44441239  0.32664961  0.07606464    -0.31000
H1351       H  0.41129281  0.28230580  0.07254284     0.13200
H1352       H  0.44826084  0.35199608  0.08832273     0.13800
C1353       C  0.33006818  0.39348882  0.07209021    -0.15800
C1354       C  0.29903754  0.41032207  0.06922589    -0.31000
H1355       H  0.35096419  0.40107302  0.05421804     0.13200
H1356       H  0.27695706  0.40340271  0.08584833     0.13800
C1357       C  0.29383836  0.32694992  0.19736385    -0.12700
C1358       C  0.31782490  0.30849676  0.17631352     0.09400
C1359       C  0.31820321  0.27164407  0.17968663    -0.12700
C1360       C  0.29624425  0.25430045  0.20334119    -0.12700
C1361       C  0.27315225  0.27263282  0.22544068     0.09400
C1362       C  0.27161322  0.30944852  0.22112407    -0.12700
H1363       H  0.29200384  0.35515784  0.19509804     0.13400
H1364       H  0.33496057  0.25516421  0.16429689     0.13400
H1365       H  0.29757916  0.22599709  0.20478376     0.13400
H1366       H  0.25293343  0.32513749  0.23535291     0.13400
C1367       C  0.56717586  0.70527041  0.07897531    -0.15800
C1368       C  0.57919608  0.67389998  0.09009061    -0.31000
H1369       H  0.57665644  0.72936086  0.09071318     0.13200
H1370       H  0.56838489  0.65059406  0.07786369     0.13800
C1371       C  0.69041847  0.58486380  0.08570873    -0.15800
C1372       C  0.66015773  0.59002261  0.10309754    -0.31000
H1373       H  0.71284298  0.60219335  0.08909189     0.13200
H1374       H  0.63876642  0.57151278  0.09911640     0.13800
C1375       C  0.58005148  0.60137363  0.18453720    -0.15800
C1376       C  0.55178952  0.59109482  0.16584012    -0.31000
H1377       H  0.58642949  0.58891278  0.20929666     0.13200
H1378       H  0.54530975  0.60517379  0.14199518     0.13800
C1379       C  0.70136631  0.67749571  0.20677192    -0.12700
C1380       C  0.67716942  0.69408621  0.18429824     0.09400
C1381       C  0.67802052  0.73092278  0.18259762    -0.12700
C1382       C  0.70142848  0.75023522  0.20350642    -0.12700
C1383       C  0.72434998  0.73371549  0.22760555     0.09400
C1384       C  0.72496780  0.69673623  0.22734757    -0.12700
H1385       H  0.70216416  0.64918127  0.20826021     0.13400
H1386       H  0.66053427  0.74535282  0.16569945     0.13400
H1387       H  0.70082448  0.77854238  0.20182189     0.13400
H1388       H  0.74359063  0.68202851  0.24275206     0.13400
C1389       C  0.67610374  0.42883438  0.07105702    -0.15800
C1390       C  0.69072531  0.42381294  0.10269718    -0.31000
H1391       H  0.65420813  0.41227523  0.06318056     0.13200
H1392       H  0.71289716  0.43956878  0.11135136     0.13800
C1393       C  0.59409180  0.42353949  0.17966019    -0.15800
C1394       C  0.56946061  0.43581717  0.15754799    -0.31000
H1395       H  0.59336907  0.43081716  0.20709943     0.13200
H1396       H  0.56914697  0.42703552  0.13063929     0.13800
C1397       C  0.59241331  0.31723570  0.07797304    -0.15800
C1398       C  0.60246770  0.34915209  0.08916873    -0.31000
H1399       H  0.60167998  0.29377591  0.09109047     0.13200
H1400       H  0.59217991  0.37194135  0.07556585     0.13800
C1401       C  0.70956540  0.30244371  0.17617575    -0.12700
C1402       C  0.68620476  0.32572041  0.19255230     0.09400
C1403       C  0.68408075  0.32446743  0.22938712    -0.12700
C1404       C  0.70412954  0.30055907  0.24878705    -0.12700
C1405       C  0.72680642  0.27643064  0.23243499     0.09400
C1406       C  0.72974395  0.27862283  0.19558980    -0.12700
H1407       H  0.71266461  0.30311580  0.14801449     0.13400
H1408       H  0.66757054  0.34198907  0.24397881     0.13400
H1409       H  0.70189652  0.30079537  0.27703590     0.13400
H1410       H  0.74821680  0.26280453  0.18124565     0.13400
C1411       C  0.41212933  0.69662463  0.07443413    -0.15800
C1412       C  0.40219221  0.66426684  0.08448894    -0.31000
H1413       H  0.39867312  0.71959735  0.08427221     0.13200
H1414       H  0.41617367  0.64205221  0.07363500     0.13800
C1415       C  0.40607578  0.57341334  0.18783050    -0.15800
C1416       C  0.38384116  0.57564488  0.16052605    -0.31000
H1417       H  0.40615901  0.59305023  0.20832518     0.13200
H1418       H  0.38484766  0.55545699  0.14054385     0.13800
C1419       C  0.31257497  0.59278493  0.07192274    -0.15800
C1420       C  0.28669202  0.56873332  0.07233773    -0.31000
H1421       H  0.33163729  0.59183692  0.05075694     0.13200
H1422       H  0.26708165  0.56837793  0.09295883     0.13800
C1423       C  0.26652739  0.68263081  0.17520678    -0.12700
C1424       C  0.30352911  0.68104227  0.17461210     0.09400
C1425       C  0.32214106  0.70182540  0.19882602    -0.12700
C1426       C  0.30462375  0.72425688  0.22196437    -0.12700
C1427       C  0.26759312  0.72717114  0.22143255     0.09400
C1428       C  0.24903951  0.70486527  0.19838809    -0.12700
H1429       H  0.25045225  0.66663260  0.15836331     0.13400
H1430       H  0.35058575  0.70052665  0.19995201     0.13400
H1431       H  0.32048783  0.73872421  0.24040962     0.13400
H1432       H  0.22054435  0.70528845  0.19787242     0.13400
loop_ 
_geom_bond_atom_site_label_1 
_geom_bond_atom_site_label_2 
_geom_bond_distance 
_geom_bond_site_symmetry_2 
_ccdc_geom_bond_type 
C1            C2   1.564       .  S
C1            C7   1.556       .  S
C1            C5   1.550       .  S
C1         C1424   1.536       .  S
C2            H9   1.082       .  S
C2            C3   1.366       .  D
C3            C4   1.518       .  S
C3         C1419   1.477       .  S
C4            C8   1.525       .  S
C4            C6   1.523       .  S
C4           H10   1.113       .  S
C5           H11   1.086       .  S
C5            C6   1.363       .  D
C6         C1416   1.474       .  S
C7           H12   1.085       .  S
C7            C8   1.369       .  D
C8         C1412   1.487       .  S
C13          C14   1.548       .  S
C13          C19   1.556       .  S
C13          C17   1.554       .  S
C13        C1402   1.539       .  S
C14          H21   1.086       .  S
C14          C15   1.363       .  D
C15          C16   1.534       .  S
C15        C1390   1.489       .  S
C16          C20   1.527       .  S
C16          C18   1.537       .  S
C16          H22   1.105       .  S
C17          H23   1.081       .  S
C17          C18   1.364       .  D
C18        C1393   1.495       .  S
C19          H24   1.085       .  S
C19          C20   1.372       .  D
C20        C1398   1.490       .  S
C25          C26   1.565       .  S
C25          C31   1.550       .  S
C25          C29   1.556       .  S
C25        C1380   1.537       .  S
C26          H33   1.081       .  S
C26          C27   1.372       .  D
C27          C28   1.527       .  S
C27        C1368   1.493       .  S
C28          C32   1.523       .  S
C28          C30   1.530       .  S
C28          H34   1.109       .  S
C29          H35   1.086       .  S
C29          C30   1.368       .  D
C30        C1375   1.495       .  S
C31          H36   1.086       .  S
C31          C32   1.361       .  D
C32        C1372   1.476       .  S
C37          C38   1.557       .  S
C37          C43   1.556       .  S
C37          C41   1.560       .  S
C37        C1358   1.545       .  S
C38          H45   1.079       .  S
C38          C39   1.356       .  D
C39          C40   1.530       .  S
C39        C1349   1.489       .  S
C40          C44   1.528       .  S
C40          C42   1.528       .  S
C40          H46   1.110       .  S
C41          H47   1.085       .  S
C41          C42   1.373       .  D
C42        C1345   1.489       .  S
C43          H48   1.085       .  S
C43          C44   1.370       .  D
C44        C1353   1.490       .  S
O49         Cu57   2.049       .  S
O49          C59   1.281       .  A
O50         Cu57   2.050       .  S
O50          C60   1.282       .  A
O51         Cu57   2.048       .  S
O51          C61   1.281       .  A
O52         Cu57   2.057       .  S
O52          C62   1.282       .  A
O53         Cu58   1.982       .  S
O53          C62   1.277       .  A
O54         Cu58   1.988       .  S
O54          C61   1.275       .  A
O55         Cu58   1.978       .  S
O55          C60   1.273       .  A
O56         Cu58   1.966       .  S
O56          C59   1.275       .  A
Cu57        Cu58   2.369       .  S
C59        C1415   1.482       .  S
C60        C1394   1.475       .  S
C61        C1376   1.475       .  S
C62        C1346   1.494       .  S
C63          C64   1.549       .  S
C63          C69   1.569       .  S
C63          C67   1.547       .  S
C63        C1336   1.534       .  S
C64          H71   1.085       .  S
C64          C65   1.364       .  D
C65          C66   1.525       .  S
C65        C1327   1.481       .  S
C66          C70   1.523       .  S
C66          C68   1.521       .  S
C66          H72   1.113       .  S
C67          H73   1.086       .  S
C67          C68   1.360       .  D
C68        C1323   1.470       .  S
C69          H74   1.083       .  S
C69          C70   1.377       .  D
C70        C1331   1.488       .  S
C75          C76   1.553       .  S
C75          C81   1.554       .  S
C75          C79   1.557       .  S
C75        C1314   1.530       .  S
C76          H83   1.085       .  S
C76          C77   1.366       .  D
C77          C78   1.529       .  S
C77        C1305   1.480       .  S
C78          C82   1.524       .  S
C78          C80   1.531       .  S
C78          H84   1.110       .  S
C79          H85   1.081       .  S
C79          C80   1.361       .  D
C80        C1301   1.487       .  S
C81          H86   1.086       .  S
C81          C82   1.364       .  D
C82        C1309   1.481       .  S
C87          C88   1.550       .  S
C87          C93   1.552       .  S
C87          C91   1.558       .  S
C87        C1292   1.534       .  S
C88          H95   1.086       .  S
C88          C89   1.365       .  D
C89          C90   1.532       .  S
C89        C1288   1.492       .  S
C90          C94   1.524       .  S
C90          C92   1.522       .  S
C90          H96   1.108       .  S
C91          H97   1.085       .  S
C91          C92   1.370       .  D
C92        C1283   1.481       .  S
C93          H98   1.081       .  S
C93          C94   1.362       .  D
C94        C1279   1.474       .  S
C99         C100   1.563       .  S
C99         C105   1.548       .  S
C99         C103   1.558       .  S
C99        C1270   1.538       .  S
C100        H107   1.081       .  S
C100        C101   1.369       .  D
C101        C102   1.527       .  S
C101       C1265   1.489       .  S
C102        C106   1.534       .  S
C102        C104   1.528       .  S
C102        H108   1.107       .  S
C103        H109   1.085       .  S
C103        C104   1.370       .  D
C104       C1257   1.493       .  S
C105        H110   1.086       .  S
C105        C106   1.360       .  D
C106       C1261   1.491       .  S
O111       Cu119   1.988   1_554  S
O111        C121   1.277       .  A
O112       Cu119   1.980       .  S
O112        C122   1.276       .  A
O113       Cu119   1.982       .  S
O113        C123   1.276       .  A
O114       Cu119   1.994   1_554  S
O114        C124   1.277       .  A
O115       Cu120   2.054   1_554  S
O115        C124   1.282       .  A
O116       Cu120   2.056       .  S
O116        C123   1.282       .  A
O117       Cu120   2.038       .  S
O117        C122   1.280       .  A
O118       Cu120   2.041   1_554  S
O118        C121   1.280       .  A
Cu119      Cu120   2.368       .  S
C121       C1420   1.483       .  S
C122       C1328   1.482       .  S
C123       C1266   1.493       .  S
C124       C1354   1.493       .  S
O125       Cu133   2.058       .  S
O125        C135   1.283       .  A
O126       Cu133   2.064   1_556  S
O126        C136   1.283       .  A
O127       Cu133   2.041       .  S
O127        C137   1.280       .  A
O128       Cu133   2.041   1_556  S
O128        C138   1.279       .  A
O129       Cu134   1.995       .  S
O129        C138   1.278       .  A
O130       Cu134   1.995   1_554  S
O130        C137   1.278       .  A
O131       Cu134   1.985       .  S
O131        C136   1.276       .  A
O132       Cu134   1.993   1_554  S
O132        C135   1.277       .  A
Cu133      Cu134   2.366   1_554  S
C135       C1367   1.497       .  S
C136       C1258   1.499       .  S
C137       C1411   1.490       .  S
C138       C1284   1.485       .  S
O139       Cu147   2.038   1_556  S
O139        C149   1.280       .  A
O140       Cu147   2.046       .  S
O140        C150   1.281       .  A
O141       Cu147   2.048   1_556  S
O141        C151   1.282       .  A
O142       Cu147   2.044       .  S
O142        C152   1.280       .  A
O143       Cu148   1.964       .  S
O143        C152   1.275       .  A
O144       Cu148   1.966   1_556  S
O144        C151   1.271       .  A
O145       Cu148   1.975       .  S
O145        C150   1.273       .  A
O146       Cu148   1.965   1_556  S
O146        C149   1.274       .  A
Cu147      Cu148   2.369       .  S
C149       C1280   1.479       .  S
C150       C1389   1.468       .  S
C151       C1302   1.468       .  S
C152       C1371   1.483       .  S
O153       Cu161   1.972       .  S
O153        C163   1.274       .  A
O154       Cu161   1.964   1_554  S
O154        C164   1.270       .  A
O155       Cu161   2.002   1_554  S
O155        C165   1.279       .  A
O156       Cu161   2.013       .  S
O156        C166   1.281       .  A
O157       Cu162   2.033   1_556  S
O157        C166   1.278       .  A
O158       Cu162   2.040       .  S
O158        C165   1.280       .  A
O159       Cu162   2.056       .  S
O159        C164   1.283       .  A
O160       Cu162   2.060   1_556  S
O160        C163   1.283       .  A
Cu161      Cu162   2.370   1_556  S
C163       C1310   1.486       .  S
C164       C1350   1.469       .  S
C165       C1397   1.490       .  S
C166       C1332   1.492       .  S
O167       Cu175   1.957       .  S
O167        C177   1.273       .  A
O168       Cu175   1.970       .  S
O168        C178   1.272       .  A
O169       Cu175   1.978       .  S
O169        C179   1.276       .  A
O170       Cu175   1.988       .  S
O170        C180   1.275       .  A
O171       Cu176   2.035       .  S
O171        C180   1.280       .  A
O172       Cu176   2.036       .  S
O172        C179   1.279       .  A
O173       Cu176   2.051       .  S
O173        C178   1.282       .  A
O174       Cu176   2.060       .  S
O174        C177   1.283       .  A
Cu175      Cu176   2.372       .  S
C177       C1306   1.489       .  S
C178       C1262   1.471       .  S
C179       C1324   1.476       .  S
C180       C1287   1.473       .  S
C181        C182   1.553       .  S
C181        C187   1.553       .  S
C181        C185   1.555       .  S
C181       C1248   1.527       .  S
C182        H189   1.083       .  S
C182        C183   1.359       .  D
C183        C184   1.519       .  S
C183       C1239   1.464       .  S
C184        C188   1.524       .  S
C184        C186   1.521       .  S
C184        H190   1.113       .  S
C185        H191   1.086       .  S
C185        C186   1.364       .  D
C186       C1236   1.471       .  S
C187        H192   1.085       .  S
C187        C188   1.370       .  D
C188       C1243   1.484       .  S
C193        C194   1.554       .  S
C193        C199   1.560       .  S
C193        C197   1.547       .  S
C193       C1226   1.536       .  S
C194        H201   1.085       .  S
C194        C195   1.371       .  D
C195        C196   1.528       .  S
C195       C1222   1.490       .  S
C196        C200   1.527       .  S
C196        C198   1.537       .  S
C196        H202   1.108       .  S
C197        H203   1.086       .  S
C197        C198   1.361       .  D
C198       C1217   1.490       .  S
C199        H204   1.080       .  S
C199        C200   1.366       .  D
C200       C1213   1.485       .  S
C205        C206   1.559       .  S
C205        C211   1.566       .  S
C205        C209   1.548       .  S
C205       C1207   1.536       .  S
C206        H213   1.085       .  S
C206        C207   1.370       .  D
C207        C208   1.528       .  S
C207       C1192   1.489       .  S
C208        C212   1.526       .  S
C208        C210   1.522       .  S
C208        H214   1.113       .  S
C209        H215   1.086       .  S
C209        C210   1.357       .  D
C210       C1195   1.472       .  S
C211        H216   1.082       .  S
C211        C212   1.371       .  D
C212       C1199   1.488       .  S
C217        C218   1.558       .  S
C217        C223   1.560       .  S
C217        C221   1.548       .  S
C217       C1182   1.540       .  S
C218        H225   1.085       .  S
C218        C219   1.373       .  D
C219        C220   1.527       .  S
C219       C1169   1.492       .  S
C220        C224   1.525       .  S
C220        C222   1.534       .  S
C220        H226   1.109       .  S
C221        H227   1.086       .  S
C221        C222   1.360       .  D
C222       C1177   1.489       .  S
C223        H228   1.080       .  S
C223        C224   1.369       .  D
C224       C1174   1.487       .  S
O229       Cu237   2.042       .  S
O229        C239   1.280       .  A
O230       Cu237   2.034       .  S
O230        C240   1.279       .  A
O231       Cu237   2.053       .  S
O231        C241   1.283       .  A
O232       Cu237   2.051       .  S
O232        C242   1.281       .  A
O233       Cu238   1.959       .  S
O233        C242   1.273       .  A
O234       Cu238   1.963       .  S
O234        C241   1.271       .  A
O235       Cu238   2.001       .  S
O235        C240   1.279       .  A
O236       Cu238   2.007       .  S
O236        C239   1.280       .  A
Cu237      Cu238   2.369       .  S
C239       C1170   1.494       .  S
C240       C1244   1.488       .  S
C241       C1218   1.467       .  S
C242       C1196   1.478       .  S
C243        C244   1.559       .  S
C243        C249   1.557       .  S
C243        C247   1.551       .  S
C243       C1160   1.536       .  S
C244        H251   1.085       .  S
C244        C245   1.372       .  D
C245        C246   1.525       .  S
C245       C1151   1.488       .  S
C246        C250   1.522       .  S
C246        C248   1.522       .  S
C246        H252   1.113       .  S
C247        H253   1.086       .  S
C247        C248   1.363       .  D
C248       C1155   1.476       .  S
C249        H254   1.081       .  S
C249        C250   1.365       .  D
C250       C1147   1.476       .  S
C255        C256   1.555       .  S
C255        C261   1.548       .  S
C255        C259   1.563       .  S
C255       C1138   1.532       .  S
C256        H263   1.085       .  S
C256        C257   1.367       .  D
C257        C258   1.528       .  S
C257       C1133   1.488       .  S
C258        C262   1.523       .  S
C258        C260   1.524       .  S
C258        H264   1.113       .  S
C259        H265   1.082       .  S
C259        C260   1.373       .  D
C260       C1129   1.485       .  S
C261        H266   1.086       .  S
C261        C262   1.359       .  D
C262       C1126   1.471       .  S
C267        C268   1.554       .  S
C267        C273   1.550       .  S
C267        C271   1.556       .  S
C267       C1116   1.537       .  S
C268        H275   1.085       .  S
C268        C269   1.371       .  D
C269        C270   1.525       .  S
C269       C1107   1.481       .  S
C270        C274   1.520       .  S
C270        C272   1.531       .  S
C270        H276   1.106       .  S
C271        H277   1.081       .  S
C271        C272   1.363       .  D
C272       C1103   1.488       .  S
C273        H278   1.086       .  S
C273        C274   1.364       .  D
C274       C1112   1.474       .  S
C279        C280   1.551       .  S
C279        C285   1.550       .  S
C279        C283   1.550       .  S
C279       C1094   1.533       .  S
C280        H287   1.081       .  S
C280        C281   1.361       .  D
C281        C282   1.539       .  S
C281       C1089   1.493       .  S
C282        C286   1.538       .  S
C282        C284   1.531       .  S
C282        H288   1.102       .  S
C283        H289   1.085       .  S
C283        C284   1.367       .  D
C284       C1085   1.484       .  S
C285        H290   1.086       .  S
C285        C286   1.366       .  D
C286       C1081   1.497       .  S
O291       Cu299   1.969       .  S
O291        C301   1.276       .  A
O292       Cu299   1.971   1_565  S
O292        C302   1.276       .  A
O293       Cu299   1.974   1_565  S
O293        C303   1.275       .  A
O294       Cu299   1.974       .  S
O294        C304   1.275       .  A
O295       Cu300   2.054   1_545  S
O295        C304   1.283       .  A
O296       Cu300   2.052       .  S
O296        C303   1.282       .  A
O297       Cu300   2.037       .  S
O297        C302   1.279       .  A
O298       Cu300   2.041   1_545  S
O298        C301   1.280       .  A
Cu299      Cu300   2.368   1_545  S
C301       C1235   1.480       .  S
C302       C1148   1.481       .  S
C303       C1086   1.488       .  S
C304       C1214   1.488       .  S
O305       Cu313   1.978   1_565  S
O305        C315   1.273       .  A
O306       Cu313   1.989       .  S
O306        C316   1.276       .  A
O307       Cu313   1.973       .  S
O307        C317   1.276       .  A
O308       Cu313   1.987   1_565  S
O308        C318   1.275       .  A
O309       Cu314   2.016       .  S
O309        C318   1.278       .  A
O310       Cu314   2.024   1_545  S
O310        C317   1.277       .  A
O311       Cu314   2.060   1_545  S
O311        C316   1.283       .  A
O312       Cu314   2.064       .  S
O312        C315   1.284       .  A
Cu313      Cu314   2.373   1_545  S
C315       C1082   1.479       .  S
C316       C1191   1.495       .  S
C317       C1240   1.467       .  S
C318       C1104   1.467       .  S
O319       Cu327   1.985       .  S
O319        C329   1.276       .  A
O320       Cu327   1.979   1_545  S
O320        C330   1.276       .  A
O321       Cu327   1.987       .  S
O321        C331   1.277       .  A
O322       Cu327   1.994   1_545  S
O322        C332   1.278       .  A
O323       Cu328   2.037   1_545  S
O323        C332   1.280       .  A
O324       Cu328   2.037       .  S
O324        C331   1.279       .  A
O325       Cu328   2.059   1_545  S
O325        C330   1.283       .  A
O326       Cu328   2.056       .  S
O326        C329   1.283       .  A
Cu327      Cu328   2.367       .  S
C329       C1134   1.492       .  S
C330       C1200   1.494       .  S
C331       C1111   1.480       .  S
C332       C1173   1.487       .  S
O333       Cu341   2.032   1_565  S
O333        C343   1.278       .  A
O334       Cu341   2.039       .  S
O334        C344   1.280       .  A
O335       Cu341   2.053   1_565  S
O335        C345   1.282       .  A
O336       Cu341   2.052       .  S
O336        C346   1.282       .  A
O337       Cu342   1.966   1_545  S
O337        C346   1.271       .  A
O338       Cu342   1.970       .  S
O338        C345   1.274       .  A
O339       Cu342   2.005   1_545  S
O339        C344   1.279       .  A
O340       Cu342   1.999       .  S
O340        C343   1.279       .  A
Cu341      Cu342   2.370   1_545  S
C343       C1130   1.487       .  S
C344       C1221   1.491       .  S
C345       C1156   1.481       .  S
C346       C1178   1.468       .  S
O347       Cu355   1.973       .  S
O347        C357   1.272       .  A
O348       Cu355   1.961       .  S
O348        C358   1.274       .  A
O349       Cu355   2.001       .  S
O349        C359   1.279       .  A
O350       Cu355   2.006       .  S
O350        C360   1.279       .  A
O351       Cu356   2.039       .  S
O351        C360   1.280       .  A
O352       Cu356   2.031       .  S
O352        C359   1.278       .  A
O353       Cu356   2.048       .  S
O353        C358   1.281       .  A
O354       Cu356   2.046       .  S
O354        C357   1.282       .  A
Cu355      Cu356   2.370       .  S
C357       C1090   1.471       .  S
C358       C1125   1.477       .  S
C359       C1108   1.485       .  S
C360       C1152   1.491       .  S
C361        C362   1.557       .  S
C361        C367   1.554       .  S
C361        C365   1.549       .  S
C361       C1072   1.525       .  S
C362        H369   1.086       .  S
C362        C363   1.367       .  D
C363        C364   1.523       .  S
C363       C1067   1.478       .  S
C364        C368   1.523       .  S
C364        C366   1.525       .  S
C364        H370   1.113       .  S
C365        H371   1.085       .  S
C365        C366   1.364       .  D
C366       C1059   1.478       .  S
C367        H372   1.081       .  S
C367        C368   1.361       .  D
C368       C1063   1.472       .  S
C373        C374   1.561       .  S
C373        C379   1.554       .  S
C373        C377   1.559       .  S
C373       C1050   1.539       .  S
C374        H381   1.081       .  S
C374        C375   1.365       .  D
C375        C376   1.518       .  S
C375       C1045   1.479       .  S
C376        C380   1.522       .  S
C376        C378   1.522       .  S
C376        H382   1.113       .  S
C377        H383   1.086       .  S
C377        C378   1.367       .  D
C378       C1041   1.482       .  S
C379        H384   1.086       .  S
C379        C380   1.368       .  D
C380       C1037   1.477       .  S
C385        C386   1.553       .  S
C385        C391   1.551       .  S
C385        C389   1.550       .  S
C385       C1028   1.536       .  S
C386        H393   1.085       .  S
C386        C387   1.369       .  D
C387        C388   1.531       .  S
C387       C1015   1.488       .  S
C388        C392   1.537       .  S
C388        C390   1.539       .  S
C388        H394   1.103       .  S
C389        H395   1.086       .  S
C389        C390   1.366       .  D
C390       C1023   1.498       .  S
C391        H396   1.081       .  S
C391        C392   1.361       .  D
C392       C1020   1.490       .  S
C397        C398   1.561       .  S
C397        C403   1.548       .  S
C397        C401   1.564       .  S
C397       C1006   1.544       .  S
C398        H405   1.085       .  S
C398        C399   1.372       .  D
C399        C400   1.527       .  S
C399        C997   1.492       .  S
C400        C404   1.533       .  S
C400        C402   1.523       .  S
C400        H406   1.108       .  S
C401        H407   1.080       .  S
C401        C402   1.366       .  D
C402        C993   1.489       .  S
C403        H408   1.086       .  S
C403        C404   1.363       .  D
C404       C1001   1.489       .  S
O409       Cu417   1.992   1_655  S
O409        C419   1.278       .  A
O410       Cu417   1.993       .  S
O410        C420   1.278       .  A
O411       Cu417   1.976       .  S
O411        C421   1.276       .  A
O412       Cu417   1.984   1_655  S
O412        C422   1.276       .  A
O413       Cu418   2.054       .  S
O413        C422   1.282       .  A
O414       Cu418   2.058   1_455  S
O414        C421   1.282       .  A
O415       Cu418   2.049   1_455  S
O415        C420   1.280       .  A
O416       Cu418   2.046       .  S
O416        C419   1.281       .  A
Cu417      Cu418   2.366   1_455  S
C419        C994   1.491       .  S
C420        C989   1.490       .  S
C421        C986   1.490       .  S
C422       C1016   1.491       .  S
O423       Cu431   2.062   1_455  S
O423        C433   1.283       .  A
O424       Cu431   2.064       .  S
O424        C434   1.283       .  A
O425       Cu431   2.051       .  S
O425        C435   1.281       .  A
O426       Cu431   2.050   1_455  S
O426        C436   1.281       .  A
O427       Cu432   1.964       .  S
O427        C436   1.274       .  A
O428       Cu432   1.962   1_655  S
O428        C435   1.274       .  A
O429       Cu432   1.990   1_655  S
O429        C434   1.277       .  A
O430       Cu432   1.995       .  S
O430        C433   1.278       .  A
Cu431      Cu432   2.365   1_655  S
C433        C981   1.498       .  S
C434        C998   1.499       .  S
C435       C1060   1.485       .  S
C436        C977   1.482       .  S
O437       Cu445   2.006       .  S
O437        C447   1.280       .  A
O438       Cu445   1.995   1_655  S
O438        C448   1.278       .  A
O439       Cu445   1.966       .  S
O439        C449   1.273       .  A
O440       Cu445   1.978   1_655  S
O440        C450   1.273       .  A
O441       Cu446   2.062       .  S
O441        C450   1.283       .  A
O442       Cu446   2.059   1_455  S
O442        C449   1.283       .  A
O443       Cu446   2.034       .  S
O443        C448   1.279       .  A
O444       Cu446   2.030   1_455  S
O444        C447   1.278       .  A
Cu445      Cu446   2.370   1_455  S
C447        C973   1.488       .  S
C448       C1046   1.482       .  S
C449        C969   1.481       .  S
C450       C1024   1.478       .  S
O451       Cu459   1.977   1_655  S
O451        C461   1.276       .  A
O452       Cu459   1.980       .  S
O452        C462   1.276       .  A
O453       Cu459   1.984   1_655  S
O453        C463   1.276       .  A
O454       Cu459   1.982       .  S
O454        C464   1.276       .  A
O455       Cu460   2.061       .  S
O455        C464   1.283       .  A
O456       Cu460   2.055   1_655  S
O456        C463   1.282       .  A
O457       Cu460   2.044       .  S
O457        C462   1.280       .  A
O458       Cu460   2.050   1_655  S
O458        C461   1.281       .  A
Cu459      Cu460   2.365       .  S
C461       C1068   1.484       .  S
C462        C961   1.485       .  S
C463       C1042   1.491       .  S
C464        C966   1.497       .  S
O465       Cu473   1.973       .  S
O465        C475   1.272       .  A
O466       Cu473   1.963       .  S
O466        C476   1.274       .  A
O467       Cu473   1.977       .  S
O467        C477   1.277       .  A
O468       Cu473   1.979       .  S
O468        C478   1.274       .  A
O469       Cu474   2.039       .  S
O469        C478   1.281       .  A
O470       Cu474   2.038       .  S
O470        C477   1.279       .  A
O471       Cu474   2.042       .  S
O471        C476   1.281       .  A
O472       Cu474   2.044       .  S
O472        C475   1.282       .  A
Cu473      Cu474   2.369       .  S
C475       C1019   1.470       .  S
C476       C1064   1.479       .  S
C477       C1038   1.485       .  S
C478       C1002   1.469       .  S
C479        C480   1.556       .  S
C479        C485   1.559       .  S
C479        C483   1.565       .  S
C479        C952   1.541       .  S
C480        H487   1.080       .  S
C480        C481   1.359       .  D
C481        C482   1.521       .  S
C481        C947   1.472       .  S
C482        C486   1.526       .  S
C482        C484   1.523       .  S
C482        H488   1.112       .  S
C483        H489   1.085       .  S
C483        C484   1.372       .  D
C484        C982   1.493       .  S
C485        H490   1.085       .  S
C485        C486   1.370       .  D
C486        C965   1.490       .  S
C491        C492   1.555       .  S
C491        C497   1.555       .  S
C491        C495   1.559       .  S
C491        C938   1.540       .  S
C492        H499   1.085       .  S
C492        C493   1.372       .  D
C493        C494   1.525       .  S
C493        C974   1.487       .  S
C494        C498   1.528       .  S
C494        C496   1.525       .  S
C494        H500   1.110       .  S
C495        H501   1.085       .  S
C495        C496   1.372       .  D
C496        C990   1.485       .  S
C497        H502   1.079       .  S
C497        C498   1.351       .  D
C498        C933   1.480       .  S
C503        C504   1.557       .  S
C503        C509   1.553       .  S
C503        C507   1.558       .  S
C503        C924   1.537       .  S
C504        H511   1.080       .  S
C504        C505   1.369       .  D
C505        C506   1.525       .  S
C505        C920   1.486       .  S
C506        C510   1.523       .  S
C506        C508   1.525       .  S
C506        H512   1.112       .  S
C507        H513   1.085       .  S
C507        C508   1.369       .  D
C508        C985   1.485       .  S
C509        H514   1.086       .  S
C509        C510   1.363       .  D
C510        C978   1.476       .  S
C515        C516   1.555       .  S
C515        C521   1.555       .  S
C515        C519   1.552       .  S
C515        C910   1.529       .  S
C516        H523   1.085       .  S
C516        C517   1.365       .  D
C517        C518   1.524       .  S
C517        C962   1.481       .  S
C518        C522   1.527       .  S
C518        C520   1.523       .  S
C518        H524   1.112       .  S
C519        H525   1.086       .  S
C519        C520   1.362       .  D
C520        C970   1.476       .  S
C521        H526   1.081       .  S
C521        C522   1.370       .  D
C522        C905   1.481       .  S
O527       Cu535   2.000       .  S
O527        C537   1.279       .  A
O528       Cu535   1.989       .  S
O528        C538   1.278       .  A
O529       Cu535   1.947       .  S
O529        C539   1.273       .  A
O530       Cu535   1.948       .  S
O530        C540   1.268       .  A
O531       Cu536   2.044       .  S
O531        C540   1.283       .  A
O532       Cu536   2.050       .  S
O532        C539   1.281       .  A
O533       Cu536   2.029       .  S
O533        C538   1.278       .  A
O534       Cu536   2.028       .  S
O534        C537   1.279       .  A
Cu535      Cu536   2.372       .  S
C537        C919   1.484       .  S
C538        C906   1.482       .  S
C539        C948   1.481       .  S
C540        C934   1.459       .  S
C541        C899   1.566       .  S
C541        C913   1.557       .  S
C541       C1185   1.565       .  S
C541       C1361   1.563       .  S
C542        C889   1.559       .  S
C542       C1053   1.564       .  S
C542       C1229   1.559       .  S
C542       C1405   1.561       .  S
C543        C876   1.549       .  S
C543        C941   1.558       .  S
C543       C1141   1.563       .  S
C543       C1427   1.560       .  S
C544        C866   1.551       .  S
C544        C955   1.568       .  S
C544       C1204   1.564       .  S
C544       C1339   1.563       .  S
C545        C859   1.556       .  S
C545       C1075   1.552       .  S
C545       C1251   1.555       .  S
C545       C1317   1.555       .  S
C546        C849   1.560       .  S
C546       C1031   1.564       .  S
C546       C1163   1.563       .  S
C546       C1383   1.565       .  S
C547        C836   1.562       .  S
C547        C927   1.563       .  S
C547       C1119   1.564       .  S
C547       C1273   1.563       .  S
C548        C549   1.554       .  S
C548        C554   1.558       .  S
C548        C552   1.547       .  S
C548        C896   1.544       .  S
C549        H556   1.085       .  S
C549        C550   1.370       .  D
C550        C551   1.534       .  S
C550        C828   1.491       .  S
C551        C555   1.536       .  S
C551        C553   1.540       .  S
C551        H557   1.099       .  S
C552        H558   1.086       .  S
C552        C553   1.367       .  D
C553        C823   1.501       .  S
C554        H559   1.081       .  S
C554        C555   1.363       .  D
C555        C831   1.498       .  S
C560        C561   1.550       .  S
C560        C566   1.540       .  S
C560        C564   1.560       .  S
C560        C869   1.521       .  S
C561        H568   1.086       .  S
C561        C562   1.358       .  D
C562        C563   1.525       .  S
C562        C819   1.478       .  S
C563        C567   1.529       .  S
C563        C565   1.525       .  S
C563        H569   1.112       .  S
C564        H570   1.082       .  S
C564        C565   1.371       .  D
C565        C815   1.479       .  S
C566        H571   1.085       .  S
C566        C567   1.362       .  D
C567        C812   1.474       .  S
C572        C573   1.559       .  S
C572        C578   1.552       .  S
C572        C576   1.550       .  S
C572        C886   1.529       .  S
C573        H580   1.081       .  S
C573        C574   1.370       .  D
C574        C575   1.525       .  S
C574        C807   1.483       .  S
C575        C579   1.530       .  S
C575        C577   1.522       .  S
C575        H581   1.109       .  S
C576        H582   1.086       .  S
C576        C577   1.362       .  D
C577        C803   1.474       .  S
C578        H583   1.086       .  S
C578        C579   1.364       .  D
C579        C800   1.490       .  S
C584        C585   1.552       .  S
C584        C590   1.548       .  S
C584        C588   1.554       .  S
C584        C879   1.520       .  S
C585        H592   1.080       .  S
C585        C586   1.365       .  D
C586        C587   1.526       .  S
C586        C791   1.478       .  S
C587        C591   1.528       .  S
C587        C589   1.524       .  S
C587        H593   1.112       .  S
C588        H594   1.085       .  S
C588        C589   1.365       .  D
C589        C795   1.478       .  S
C590        H595   1.086       .  S
C590        C591   1.358       .  D
C591        C787   1.479       .  S
C596        C597   1.557       .  S
C596        C602   1.561       .  S
C596        C600   1.547       .  S
C596        C846   1.537       .  S
C597        H604   1.085       .  S
C597        C598   1.370       .  D
C598        C599   1.530       .  S
C598        C775   1.489       .  S
C599        C603   1.532       .  S
C599        C601   1.526       .  S
C599        H605   1.108       .  S
C600        H606   1.085       .  S
C600        C601   1.364       .  D
C601        C779   1.480       .  S
C602        H607   1.081       .  S
C602        C603   1.364       .  D
C603        C783   1.496       .  S
O608       Cu616   2.039       .  S
O608        C618   1.279       .  A
O609       Cu616   2.036   1_465  S
O609        C619   1.279       .  A
O610       Cu616   2.065   1_455  S
O610        C620   1.284       .  A
O611       Cu616   2.063   1_565  S
O611        C621   1.283       .  A
O612       Cu617   1.980   1_565  S
O612        C621   1.276       .  A
O613       Cu617   1.976   1_455  S
O613        C620   1.275       .  A
O614       Cu617   1.970   1_465  S
O614        C619   1.275       .  A
O615       Cu617   1.970       .  S
O615        C618   1.276       .  A
Cu616      Cu617   2.367       .  S
C618        C804   1.480       .  S
C619        C792   1.479       .  S
C620        C827   1.496       .  S
C621        C776   1.495       .  S
C622        C623   1.551       .  S
C622        C628   1.553       .  S
C622        C626   1.555       .  S
C622        C839   1.534       .  S
C623        H630   1.085       .  S
C623        C624   1.366       .  D
C624        C625   1.530       .  S
C624        C771   1.484       .  S
C625        C629   1.522       .  S
C625        C627   1.534       .  S
C625        H631   1.108       .  S
C626        H632   1.081       .  S
C626        C627   1.363       .  D
C627        C767   1.489       .  S
C628        H633   1.086       .  S
C628        C629   1.366       .  D
C629        C764   1.478       .  S
O634       Cu642   1.986       .  S
O634        C644   1.276       .  A
O635       Cu642   1.996   1_544  S
O635        C645   1.276       .  A
O636       Cu642   1.962   1_545  S
O636        C646   1.274       .  A
O637       Cu642   1.970   1_554  S
O637        C647   1.272       .  A
O638       Cu643   2.031   1_564  S
O638        C647   1.279       .  A
O639       Cu643   2.036       .  S
O639        C646   1.280       .  A
O640       Cu643   2.044   1_554  S
O640        C645   1.281       .  A
O641       Cu643   2.050   1_565  S
O641        C644   1.281       .  A
Cu642      Cu643   2.371   1_565  S
C644        C763   1.481       .  S
C645        C824   1.480       .  S
C646        C811   1.477       .  S
C647        C788   1.461       .  S
C648        C649   1.548       .  S
C648        C654   1.554       .  S
C648        C652   1.554       .  S
C648        C856   1.525       .  S
C649        H656   1.086       .  S
C649        C650   1.359       .  D
C650        C651   1.529       .  S
C650        C755   1.483       .  S
C651        C655   1.526       .  S
C651        C653   1.529       .  S
C651        H657   1.111       .  S
C652        H658   1.085       .  S
C652        C653   1.366       .  D
C653        C751   1.485       .  S
C654        H659   1.081       .  S
C654        C655   1.367       .  D
C655        C759   1.479       .  S
O660       Cu668   2.058   1_454  S
O660        C670   1.283       .  A
O661       Cu668   2.064       .  S
O661        C671   1.284       .  A
O662       Cu668   2.035   1_554  S
O662        C672   1.279       .  A
O663       Cu668   2.041   1_455  S
O663        C673   1.280       .  A
O664       Cu669   1.984   1_455  S
O664        C673   1.277       .  A
O665       Cu669   1.985   1_554  S
O665        C672   1.275       .  A
O666       Cu669   1.967       .  S
O666        C671   1.274       .  A
O667       Cu669   1.980   1_454  S
O667        C670   1.273       .  A
Cu668      Cu669   2.371       .  S
C670        C832   1.478       .  S
C671        C752   1.488       .  S
C672        C799   1.470       .  S
C673        C816   1.484       .  S
C674        C675   1.556       .  S
C674        C680   1.546       .  S
C674        C678   1.549       .  S
C674        C742   1.529       .  S
C675        H682   1.082       .  S
C675        C676   1.371       .  D
C676        C677   1.531       .  S
C676        C729   1.488       .  S
C677        C681   1.534       .  S
C677        C679   1.537       .  S
C677        H683   1.103       .  S
C678        H684   1.086       .  S
C678        C679   1.365       .  D
C679        C737   1.496       .  S
C680        H685   1.086       .  S
C680        C681   1.358       .  D
C681        C733   1.485       .  S
O686       Cu694   2.059       .  S
O686        C696   1.283       .  A
O687       Cu694   2.050   1_654  S
O687        C697   1.282       .  A
O688       Cu694   2.040   1_655  S
O688        C698   1.281       .  A
O689       Cu694   2.041   1_554  S
O689        C699   1.280       .  A
O690       Cu695   1.973   1_554  S
O690        C699   1.276       .  A
O691       Cu695   1.972   1_655  S
O691        C698   1.272       .  A
O692       Cu695   1.980   1_654  S
O692        C697   1.273       .  A
O693       Cu695   1.971       .  S
O693        C696   1.274       .  A
Cu694      Cu695   2.369       .  S
C696        C772   1.490       .  S
C697        C784   1.473       .  S
C698        C734   1.465       .  S
C699        C796   1.484       .  S
O700       Cu708   1.993   1_556  S
O700        C710   1.278       .  A
O701       Cu708   1.985   1_545  S
O701        C711   1.277       .  A
O702       Cu708   1.969       .  S
O702        C712   1.274       .  A
O703       Cu708   1.969   1_546  S
O703        C713   1.272       .  A
O704       Cu709   2.047   1_546  S
O704        C713   1.281       .  A
O705       Cu709   2.046       .  S
O705        C712   1.281       .  A
O706       Cu709   2.039   1_545  S
O706        C711   1.280       .  A
O707       Cu709   2.040   1_556  S
O707        C710   1.280       .  A
Cu708      Cu709   2.370       .  S
C710        C730   1.489       .  S
C711        C808   1.486       .  S
C712        C780   1.484       .  S
C713        C756   1.465       .  S
O714       Cu722   2.031       .  S
O714        C724   1.279       .  A
O715       Cu722   2.032   1_465  S
O715        C725   1.280       .  A
O716       Cu722   2.043   1_565  S
O716        C726   1.281       .  A
O717       Cu722   2.043   1_455  S
O717        C727   1.281       .  A
O718       Cu723   1.974   1_455  S
O718        C727   1.272       .  A
O719       Cu723   1.978   1_565  S
O719        C726   1.273       .  A
O720       Cu723   1.985   1_465  S
O720        C725   1.274       .  A
O721       Cu723   1.980       .  S
O721        C724   1.277       .  A
Cu722      Cu723   2.370       .  S
C724        C760   1.479       .  S
C725        C768   1.469       .  S
C726        C738   1.471       .  S
C727        C820   1.465       .  S
C728        C745   1.558       .  S
C728       C1009   1.566       .  S
C728       C1097   1.555       .  S
C728       C1295   1.561       .  S
C729        H731   1.086       .  S
C729        C730   1.347       .  D
C730        H732   1.085       .  S
C733        H735   1.086       .  S
C733        C734   1.341       .  D
C734        H736   1.083       .  S
C737        H739   1.086       .  S
C737        C738   1.345       .  D
C738        H740   1.077       .  S
C741        C742   1.407       .  A
C741        C746   1.403       .  A
C741        H747   1.078       .  S
C742        C743   1.406       .  A
C743        C744   1.393       .  A
C743        H748   1.083       .  S
C744        C745   1.412       .  A
C744        H749   1.079       .  S
C745        C746   1.416       .  A
C746        H750   1.083       .  S
C751        H753   1.087       .  S
C751        C752   1.351       .  D
C752        H754   1.085       .  S
C755        H757   1.086       .  S
C755        C756   1.339       .  D
C756        H758   1.088       .  S
C759        H761   1.087       .  S
C759        C760   1.343       .  D
C760        H762   1.085       .  S
C763        H765   1.086       .  S
C763        C764   1.343       .  D
C764        H766   1.088       .  S
C767        H769   1.086       .  S
C767        C768   1.343       .  D
C768        H770   1.083       .  S
C771        H773   1.086       .  S
C771        C772   1.350       .  D
C772        H774   1.085       .  S
C775        H777   1.086       .  S
C775        C776   1.350       .  D
C776        H778   1.085       .  S
C779        H781   1.086       .  S
C779        C780   1.348       .  D
C780        H782   1.085       .  S
C783        H785   1.086       .  S
C783        C784   1.345       .  D
C784        H786   1.084       .  S
C787        H789   1.086       .  S
C787        C788   1.340       .  D
C788        H790   1.087       .  S
C791        H793   1.086       .  S
C791        C792   1.346       .  D
C792        H794   1.084       .  S
C795        H797   1.086       .  S
C795        C796   1.346       .  D
C796        H798   1.085       .  S
C799        H801   1.084       .  S
C799        C800   1.346       .  D
C800        H802   1.086       .  S
C803        H805   1.087       .  S
C803        C804   1.343       .  D
C804        H806   1.085       .  S
C807        H809   1.086       .  S
C807        C808   1.345       .  D
C808        H810   1.085       .  S
C811        H813   1.085       .  S
C811        C812   1.347       .  D
C812        H814   1.086       .  S
C815        H817   1.087       .  S
C815        C816   1.344       .  D
C816        H818   1.086       .  S
C819        H821   1.086       .  S
C819        C820   1.340       .  D
C820        H822   1.088       .  S
C823        H825   1.086       .  S
C823        C824   1.349       .  D
C824        H826   1.079       .  S
C827        H829   1.085       .  S
C827        C828   1.352       .  D
C828        H830   1.085       .  S
C831        H833   1.086       .  S
C831        C832   1.345       .  D
C832        H834   1.084       .  S
C835        C836   1.412       .  A
C835        C840   1.399       .  A
C835        H841   1.083       .  S
C836        C837   1.416       .  A
C837        C838   1.400       .  A
C837        H842   1.078       .  S
C838        C839   1.405       .  A
C838        H843   1.083       .  S
C839        C840   1.411       .  A
C840        H844   1.076       .  S
C845        C846   1.409       .  A
C845        C850   1.397       .  A
C845        H851   1.076       .  S
C846        C847   1.409       .  A
C847        C848   1.405       .  A
C847        H852   1.083       .  S
C848        C849   1.413       .  A
C848        H853   1.079       .  S
C849        C850   1.412       .  A
C850        H854   1.083       .  S
C855        C856   1.404       .  A
C855        C860   1.393       .  A
C855        H861   1.084       .  S
C856        C857   1.408       .  A
C857        C858   1.399       .  A
C857        H862   1.077       .  S
C858        C859   1.413       .  A
C858        H863   1.083       .  S
C859        C860   1.414       .  A
C860        H864   1.078       .  S
C865        C866   1.415       .  A
C865        C870   1.400       .  A
C865        H871   1.083       .  S
C866        C867   1.409       .  A
C867        C868   1.391       .  A
C867        H872   1.079       .  S
C868        C869   1.406       .  A
C868        H873   1.084       .  S
C869        C870   1.405       .  A
C870        H874   1.078       .  S
C875        C876   1.411       .  A
C875        C880   1.396       .  A
C875        H881   1.083       .  S
C876        C877   1.413       .  A
C877        C878   1.391       .  A
C877        H882   1.079       .  S
C878        C879   1.403       .  A
C878        H883   1.084       .  S
C879        C880   1.407       .  A
C880        H884   1.077       .  S
C885        C886   1.405       .  A
C885        C890   1.394       .  A
C885        H891   1.083       .  S
C886        C887   1.408       .  A
C887        C888   1.403       .  A
C887        H892   1.078       .  S
C888        C889   1.414       .  A
C888        H893   1.083       .  S
C889        C890   1.413       .  A
C890        H894   1.078       .  S
C895        C896   1.410       .  A
C895        C900   1.398       .  A
C895        H901   1.075       .  S
C896        C897   1.410       .  A
C897        C898   1.408       .  A
C897        H902   1.083       .  S
C898        C899   1.415       .  A
C898        H903   1.079       .  S
C899        C900   1.413       .  A
C900        H904   1.083       .  S
C905        H907   1.086       .  S
C905        C906   1.344       .  D
C906        H908   1.085       .  S
C909        C910   1.403       .  A
C909        C914   1.392       .  A
C909        H915   1.084       .  S
C910        C911   1.410       .  A
C911        C912   1.404       .  A
C911        H916   1.078       .  S
C912        C913   1.413       .  A
C912        H917   1.083       .  S
C913        C914   1.415       .  A
C914        H918   1.079       .  S
C919        H921   1.085       .  S
C919        C920   1.345       .  D
C920        H922   1.086       .  S
C923        C924   1.406       .  A
C923        C928   1.399       .  A
C923        H929   1.083       .  S
C924        C925   1.411       .  A
C925        C926   1.404       .  A
C925        H930   1.077       .  S
C926        C927   1.412       .  A
C926        H931   1.083       .  S
C927        C928   1.415       .  A
C928        H932   1.078       .  S
C933        H935   1.086       .  S
C933        C934   1.334       .  D
C934        H936   1.086       .  S
C937        C938   1.407       .  A
C937        C942   1.406       .  A
C937        H943   1.083       .  S
C938        C939   1.413       .  A
C939        C940   1.391       .  A
C939        H944   1.073       .  S
C940        C941   1.405       .  A
C940        H945   1.084       .  S
C941        C942   1.417       .  A
C942        H946   1.079       .  S
C947        H949   1.087       .  S
C947        C948   1.347       .  D
C948        H950   1.085       .  S
C951        C952   1.415       .  A
C951        C956   1.403       .  A
C951        H957   1.076       .  S
C952        C953   1.403       .  A
C953        C954   1.401       .  A
C953        H958   1.083       .  S
C954        C955   1.420       .  A
C954        H959   1.079       .  S
C955        C956   1.409       .  A
C956        H960   1.083       .  S
C961        H963   1.085       .  S
C961        C962   1.346       .  D
C962        H964   1.086       .  S
C965        H967   1.085       .  S
C965        C966   1.351       .  D
C966        H968   1.085       .  S
C969        H971   1.086       .  S
C969        C970   1.346       .  D
C970        H972   1.088       .  S
C973        H975   1.085       .  S
C973        C974   1.345       .  D
C974        H976   1.086       .  S
C977        H979   1.085       .  S
C977        C978   1.346       .  D
C978        H980   1.088       .  S
C981        H983   1.085       .  S
C981        C982   1.350       .  D
C982        H984   1.086       .  S
C985        H987   1.087       .  S
C985        C986   1.348       .  D
C986        H988   1.085       .  S
C989        H991   1.085       .  S
C989        C990   1.345       .  D
C990        H992   1.087       .  S
C993        H995   1.086       .  S
C993        C994   1.348       .  D
C994        H996   1.085       .  S
C997        H999   1.086       .  S
C997        C998   1.351       .  D
C998       H1000   1.085       .  S
C1001      H1003   1.086       .  S
C1001      C1002   1.343       .  D
C1002      H1004   1.084       .  S
C1005      C1006   1.410       .  A
C1005      C1010   1.407       .  A
C1005      H1011   1.083       .  S
C1006      C1007   1.410       .  A
C1007      C1008   1.400       .  A
C1007      H1012   1.076       .  S
C1008      C1009   1.413       .  A
C1008      H1013   1.083       .  S
C1009      C1010   1.414       .  A
C1010      H1014   1.079       .  S
C1015      H1017   1.086       .  S
C1015      C1016   1.350       .  D
C1016      H1018   1.085       .  S
C1019      H1021   1.083       .  S
C1019      C1020   1.341       .  D
C1020      H1022   1.086       .  S
C1023      H1025   1.086       .  S
C1023      C1024   1.346       .  D
C1024      H1026   1.084       .  S
C1027      C1028   1.403       .  A
C1027      C1032   1.398       .  A
C1027      H1033   1.083       .  S
C1028      C1029   1.413       .  A
C1029      C1030   1.402       .  A
C1029      H1034   1.076       .  S
C1030      C1031   1.410       .  A
C1030      H1035   1.083       .  S
C1031      C1032   1.418       .  A
C1032      H1036   1.079       .  S
C1037      H1039   1.087       .  S
C1037      C1038   1.343       .  D
C1038      H1040   1.086       .  S
C1041      H1043   1.087       .  S
C1041      C1042   1.347       .  D
C1042      H1044   1.086       .  S
C1045      H1047   1.087       .  S
C1045      C1046   1.344       .  D
C1046      H1048   1.086       .  S
C1049      C1050   1.408       .  A
C1049      C1054   1.403       .  A
C1049      H1055   1.083       .  S
C1050      C1051   1.410       .  A
C1051      C1052   1.400       .  A
C1051      H1056   1.077       .  S
C1052      C1053   1.412       .  A
C1052      H1057   1.083       .  S
C1053      C1054   1.415       .  A
C1054      H1058   1.079       .  S
C1059      H1061   1.086       .  S
C1059      C1060   1.348       .  D
C1060      H1062   1.085       .  S
C1063      H1065   1.087       .  S
C1063      C1064   1.346       .  D
C1064      H1066   1.086       .  S
C1067      H1069   1.088       .  S
C1067      C1068   1.345       .  D
C1068      H1070   1.086       .  S
C1071      C1072   1.409       .  A
C1071      C1076   1.395       .  A
C1071      H1077   1.077       .  S
C1072      C1073   1.404       .  A
C1073      C1074   1.396       .  A
C1073      H1078   1.083       .  S
C1074      C1075   1.414       .  A
C1074      H1079   1.079       .  S
C1075      C1076   1.410       .  A
C1076      H1080   1.083       .  S
C1081      H1083   1.086       .  S
C1081      C1082   1.346       .  D
C1082      H1084   1.085       .  S
C1085      H1087   1.086       .  S
C1085      C1086   1.349       .  D
C1086      H1088   1.085       .  S
C1089      H1091   1.086       .  S
C1089      C1090   1.341       .  D
C1090      H1092   1.082       .  S
C1093      C1094   1.410       .  A
C1093      C1098   1.396       .  A
C1093      H1099   1.075       .  S
C1094      C1095   1.407       .  A
C1095      C1096   1.400       .  A
C1095      H1100   1.083       .  S
C1096      C1097   1.413       .  A
C1096      H1101   1.079       .  S
C1097      C1098   1.410       .  A
C1098      H1102   1.083       .  S
C1103      H1105   1.086       .  S
C1103      C1104   1.344       .  D
C1104      H1106   1.081       .  S
C1107      H1109   1.087       .  S
C1107      C1108   1.343       .  D
C1108      H1110   1.086       .  S
C1111      H1113   1.086       .  S
C1111      C1112   1.342       .  D
C1112      H1114   1.088       .  S
C1115      C1116   1.407       .  A
C1115      C1120   1.405       .  A
C1115      H1121   1.083       .  S
C1116      C1117   1.410       .  A
C1117      C1118   1.396       .  A
C1117      H1122   1.076       .  S
C1118      C1119   1.411       .  A
C1118      H1123   1.083       .  S
C1119      C1120   1.417       .  A
C1120      H1124   1.078       .  S
C1125      H1127   1.086       .  S
C1125      C1126   1.342       .  D
C1126      H1128   1.088       .  S
C1129      H1131   1.086       .  S
C1129      C1130   1.344       .  D
C1130      H1132   1.085       .  S
C1133      H1135   1.086       .  S
C1133      C1134   1.350       .  D
C1134      H1136   1.085       .  S
C1137      C1138   1.404       .  A
C1137      C1142   1.395       .  A
C1137      H1143   1.083       .  S
C1138      C1139   1.409       .  A
C1139      C1140   1.405       .  A
C1139      H1144   1.078       .  S
C1140      C1141   1.415       .  A
C1140      H1145   1.083       .  S
C1141      C1142   1.415       .  A
C1142      H1146   1.079       .  S
C1147      H1149   1.086       .  S
C1147      C1148   1.345       .  D
C1148      H1150   1.085       .  S
C1151      H1153   1.086       .  S
C1151      C1152   1.346       .  D
C1152      H1154   1.085       .  S
C1155      H1157   1.088       .  S
C1155      C1156   1.344       .  D
C1156      H1158   1.086       .  S
C1159      C1160   1.412       .  A
C1159      C1164   1.402       .  A
C1159      H1165   1.078       .  S
C1160      C1161   1.404       .  A
C1161      C1162   1.399       .  A
C1161      H1166   1.083       .  S
C1162      C1163   1.417       .  A
C1162      H1167   1.078       .  S
C1163      C1164   1.411       .  A
C1164      H1168   1.083       .  S
C1169      H1171   1.086       .  S
C1169      C1170   1.346       .  D
C1170      H1172   1.085       .  S
C1173      H1175   1.085       .  S
C1173      C1174   1.347       .  D
C1174      H1176   1.086       .  S
C1177      H1179   1.086       .  S
C1177      C1178   1.340       .  D
C1178      H1180   1.085       .  S
C1181      C1182   1.406       .  A
C1181      C1186   1.401       .  A
C1181      H1187   1.083       .  S
C1182      C1183   1.412       .  A
C1183      C1184   1.405       .  A
C1183      H1188   1.077       .  S
C1184      C1185   1.412       .  A
C1184      H1189   1.083       .  S
C1185      C1186   1.416       .  A
C1186      H1190   1.079       .  S
C1191      H1193   1.085       .  S
C1191      C1192   1.351       .  D
C1192      H1194   1.086       .  S
C1195      H1197   1.088       .  S
C1195      C1196   1.344       .  D
C1196      H1198   1.086       .  S
C1199      H1201   1.086       .  S
C1199      C1200   1.350       .  D
C1200      H1202   1.085       .  S
C1203      C1204   1.414       .  A
C1203      C1208   1.401       .  A
C1203      H1209   1.079       .  S
C1204      C1205   1.415       .  A
C1205      C1206   1.403       .  A
C1205      H1210   1.083       .  S
C1206      C1207   1.409       .  A
C1206      H1211   1.078       .  S
C1207      C1208   1.408       .  A
C1208      H1212   1.083       .  S
C1213      H1215   1.086       .  S
C1213      C1214   1.350       .  D
C1214      H1216   1.085       .  S
C1217      H1219   1.086       .  S
C1217      C1218   1.340       .  D
C1218      H1220   1.085       .  S
C1221      H1223   1.085       .  S
C1221      C1222   1.346       .  D
C1222      H1224   1.086       .  S
C1225      C1226   1.409       .  A
C1225      C1230   1.399       .  A
C1225      H1231   1.076       .  S
C1226      C1227   1.408       .  A
C1227      C1228   1.402       .  A
C1227      H1232   1.083       .  S
C1228      C1229   1.414       .  A
C1228      H1233   1.079       .  S
C1229      C1230   1.412       .  A
C1230      H1234   1.083       .  S
C1235      H1237   1.086       .  S
C1235      C1236   1.344       .  D
C1236      H1238   1.087       .  S
C1239      H1241   1.089       .  S
C1239      C1240   1.338       .  D
C1240      H1242   1.086       .  S
C1243      H1245   1.086       .  S
C1243      C1244   1.344       .  D
C1244      H1246   1.086       .  S
C1247      C1248   1.408       .  A
C1247      C1252   1.395       .  A
C1247      H1253   1.078       .  S
C1248      C1249   1.404       .  A
C1249      C1250   1.396       .  A
C1249      H1254   1.083       .  S
C1250      C1251   1.415       .  A
C1250      H1255   1.078       .  S
C1251      C1252   1.411       .  A
C1252      H1256   1.083       .  S
C1257      H1259   1.085       .  S
C1257      C1258   1.351       .  D
C1258      H1260   1.085       .  S
C1261      H1263   1.086       .  S
C1261      C1262   1.342       .  D
C1262      H1264   1.084       .  S
C1265      H1267   1.086       .  S
C1265      C1266   1.350       .  D
C1266      H1268   1.085       .  S
C1269      C1270   1.410       .  A
C1269      C1274   1.404       .  A
C1269      H1275   1.077       .  S
C1270      C1271   1.407       .  A
C1271      C1272   1.399       .  A
C1271      H1276   1.083       .  S
C1272      C1273   1.414       .  A
C1272      H1277   1.078       .  S
C1273      C1274   1.414       .  A
C1274      H1278   1.083       .  S
C1279      H1281   1.086       .  S
C1279      C1280   1.346       .  D
C1280      H1282   1.085       .  S
C1283      H1285   1.088       .  S
C1283      C1284   1.343       .  D
C1284      H1286   1.086       .  S
C1287      H1289   1.084       .  S
C1287      C1288   1.346       .  D
C1288      H1290   1.086       .  S
C1291      C1292   1.412       .  A
C1291      C1296   1.400       .  A
C1291      H1297   1.077       .  S
C1292      C1293   1.403       .  A
C1293      C1294   1.398       .  A
C1293      H1298   1.083       .  S
C1294      C1295   1.418       .  A
C1294      H1299   1.079       .  S
C1295      C1296   1.409       .  A
C1296      H1300   1.083       .  S
C1301      H1303   1.086       .  S
C1301      C1302   1.341       .  D
C1302      H1304   1.086       .  S
C1305      H1307   1.086       .  S
C1305      C1306   1.350       .  D
C1306      H1308   1.085       .  S
C1309      H1311   1.088       .  S
C1309      C1310   1.347       .  D
C1310      H1312   1.085       .  S
C1313      C1314   1.409       .  A
C1313      C1318   1.395       .  A
C1313      H1319   1.076       .  S
C1314      C1315   1.406       .  A
C1315      C1316   1.399       .  A
C1315      H1320   1.083       .  S
C1316      C1317   1.413       .  A
C1316      H1321   1.079       .  S
C1317      C1318   1.411       .  A
C1318      H1322   1.083       .  S
C1323      H1325   1.088       .  S
C1323      C1324   1.339       .  D
C1324      H1326   1.086       .  S
C1327      H1329   1.086       .  S
C1327      C1328   1.346       .  D
C1328      H1330   1.085       .  S
C1331      H1333   1.087       .  S
C1331      C1332   1.344       .  D
C1332      H1334   1.086       .  S
C1335      C1336   1.406       .  A
C1335      C1340   1.405       .  A
C1335      H1341   1.079       .  S
C1336      C1337   1.409       .  A
C1337      C1338   1.399       .  A
C1337      H1342   1.083       .  S
C1338      C1339   1.411       .  A
C1338      H1343   1.078       .  S
C1339      C1340   1.418       .  A
C1340      H1344   1.083       .  S
C1345      H1347   1.086       .  S
C1345      C1346   1.349       .  D
C1346      H1348   1.085       .  S
C1349      H1351   1.086       .  S
C1349      C1350   1.340       .  D
C1350      H1352   1.086       .  S
C1353      H1355   1.087       .  S
C1353      C1354   1.349       .  D
C1354      H1356   1.085       .  S
C1357      C1358   1.408       .  A
C1357      C1362   1.408       .  A
C1357      H1363   1.083       .  S
C1358      C1359   1.413       .  A
C1359      C1360   1.396       .  A
C1359      H1364   1.074       .  S
C1360      C1361   1.408       .  A
C1360      H1365   1.084       .  S
C1361      C1362   1.417       .  A
C1362      H1366   1.079       .  S
C1367      H1369   1.085       .  S
C1367      C1368   1.351       .  D
C1368      H1370   1.086       .  S
C1371      H1373   1.085       .  S
C1371      C1372   1.345       .  D
C1372      H1374   1.087       .  S
C1375      H1377   1.086       .  S
C1375      C1376   1.347       .  D
C1376      H1378   1.085       .  S
C1379      C1380   1.408       .  A
C1379      C1384   1.400       .  A
C1379      H1385   1.083       .  S
C1380      C1381   1.409       .  A
C1381      C1382   1.404       .  A
C1381      H1386   1.078       .  S
C1382      C1383   1.415       .  A
C1382      H1387   1.083       .  S
C1383      C1384   1.413       .  A
C1384      H1388   1.078       .  S
C1389      H1391   1.086       .  S
C1389      C1390   1.344       .  D
C1390      H1392   1.086       .  S
C1393      H1395   1.086       .  S
C1393      C1394   1.345       .  D
C1394      H1396   1.083       .  S
C1397      H1399   1.085       .  S
C1397      C1398   1.347       .  D
C1398      H1400   1.086       .  S
C1401      C1402   1.407       .  A
C1401      C1406   1.402       .  A
C1401      H1407   1.083       .  S
C1402      C1403   1.411       .  A
C1403      C1404   1.401       .  A
C1403      H1408   1.076       .  S
C1404      C1405   1.411       .  A
C1404      H1409   1.083       .  S
C1405      C1406   1.415       .  A
C1406      H1410   1.079       .  S
C1411      H1413   1.085       .  S
C1411      C1412   1.347       .  D
C1412      H1414   1.086       .  S
C1415      H1417   1.086       .  S
C1415      C1416   1.344       .  D
C1416      H1418   1.087       .  S
C1419      H1421   1.088       .  S
C1419      C1420   1.344       .  D
C1420      H1422   1.086       .  S
C1423      C1424   1.408       .  A
C1423      C1428   1.399       .  A
C1423      H1429   1.077       .  S
C1424      C1425   1.409       .  A
C1425      C1426   1.403       .  A
C1425      H1430   1.083       .  S
C1426      C1427   1.412       .  A
C1426      H1431   1.079       .  S
C1427      C1428   1.413       .  A
C1428      H1432   1.083       .  S
