geometry optimzed in LAMMPS
_audit_creation_date              2020-11-30 
_audit_creation_method            'lammps2cif' 
_symmetry_space_group_name_H-M    'P1' 
_symmetry_Int_Tables_number       1 
_symmetry_cell_setting            triclinic 
loop_ 
_symmetry_equiv_pos_as_xyz 
  x,y,z 
_cell_length_a                    52.06039291 
_cell_length_b                    51.927754896334356 
_cell_length_c                    51.393105614835584 
_cell_angle_alpha                 89.88339138748859 
_cell_angle_beta                  90.3977315552135 
_cell_angle_gamma                 90.42508639261186 
loop_ 
_atom_site_label 
_atom_site_type_symbol 
_atom_site_fract_x 
_atom_site_fract_y 
_atom_site_fract_z 
_atom_site_charge 
O1          O  0.29086395  0.72429133  0.75054879    -0.79700
O2          O  0.27467279  0.81839250  0.70875591    -0.79700
O3          O  0.26697941  0.74108773  0.68515314    -0.79800
O4          O  0.28781541  0.76179415  0.78657592    -0.79700
O5          O  0.29117628  0.76791159  0.70741449    -0.79800
O6          O  0.27266948  0.72516740  0.80175007    -0.79700
O7          O  0.28825209  0.80196968  0.74591659    -0.79700
O8          O  0.26716275  0.70420120  0.72127598    -0.79800
C9          C  0.28786147  0.70619384  0.73423380     1.10000
C10         C  0.28530374  0.82180926  0.73088254     1.09900
C11         C  0.28781353  0.75358701  0.68780620     1.10000
C12         C  0.28424068  0.74643419  0.80612558     1.09900
O13         O  0.22543225  0.74032455  0.78511994    -0.79700
O14         O  0.24281792  0.78176482  0.68362483    -0.79800
O15         O  0.21404938  0.71325084  0.73351879    -0.79700
O16         O  0.23797828  0.81576550  0.76257433    -0.79700
O17         O  0.22677684  0.80416997  0.72402946    -0.79800
O18         O  0.24263251  0.70052777  0.76241689    -0.79700
O19         O  0.23678882  0.77775084  0.79905034    -0.79700
O20         O  0.21408350  0.75269107  0.69529012    -0.79800
Co21       Co  0.25868830  0.73507684  0.76826531     1.51500
Co22       Co  0.25945757  0.78601295  0.71844950     1.51700
Co23       Co  0.24055119  0.73003649  0.71119872     1.51600
Co24       Co  0.26127994  0.78620365  0.77026773     1.51500
O25         O  0.24722813  0.75758430  0.74006448    -1.41700
C26         C  0.22279710  0.75806326  0.80110094     1.09900
C27         C  0.22196312  0.76966568  0.67939117     1.10000
C28         C  0.22195971  0.69663469  0.74977901     1.09900
C29         C  0.22469769  0.81950189  0.74251311     1.09900
O30         O  0.71928791  0.22568216  0.69523225    -0.79100
O31         O  0.77090873  0.20729754  0.79193046    -0.79700
O32         O  0.80079403  0.21165564  0.71502781    -0.79800
O33         O  0.69505258  0.20802257  0.75022888    -0.79700
O34         O  0.80900724  0.21348135  0.75720770    -0.79800
O35         O  0.68006840  0.24033936  0.72906604    -0.79700
O36         O  0.73413978  0.19537745  0.77871114    -0.79700
O37         O  0.74724110  0.20001547  0.71533403    -0.79800
C38         C  0.73163530  0.20448916  0.69661827     1.10000
C39         C  0.75086409  0.19450908  0.79613287     1.09900
C40         C  0.81637169  0.20798113  0.73410190     1.10000
C41         C  0.67626608  0.21901420  0.74012944     1.09900
O42         O  0.70737813  0.28472293  0.74275489    -0.79700
O43         O  0.79033480  0.25892757  0.77129617    -0.79800
O44         O  0.76506289  0.24381947  0.68948630    -0.79700
O45         O  0.73473969  0.24590336  0.80454149    -0.79700
O46         O  0.77502604  0.25101238  0.78947434    -0.79800
O47         O  0.74335969  0.27576991  0.70428651    -0.79700
O48         O  0.69225842  0.25945385  0.77445821    -0.79700
O49         O  0.79272699  0.26105519  0.73002039    -0.79800
Co50       Co  0.71448647  0.25595351  0.71930593     1.51500
Co51       Co  0.77327576  0.22709548  0.75808971     1.51700
Co52       Co  0.76915560  0.22952778  0.72572362     1.51600
Co53       Co  0.71536130  0.22793309  0.77560967     1.51500
O54         O  0.73876548  0.24278689  0.74793497    -1.41700
C55         C  0.69224597  0.28072951  0.76166829     1.09900
C56         C  0.80073129  0.26917473  0.75170440     1.10000
C57         C  0.75431456  0.26516681  0.68539709     1.09900
C58         C  0.75780642  0.25404303  0.80728256     1.09900
O59         O  0.70854360  0.73781633  0.20458893    -0.79700
O60         O  0.80429933  0.76088162  0.24639017    -0.79700
O61         O  0.72118281  0.78506053  0.24461590    -0.79800
O62         O  0.77237925  0.68041846  0.22985528    -0.79700
O63         O  0.76067895  0.78764306  0.23286643    -0.79800
O64         O  0.74584635  0.69696861  0.20011801    -0.79700
O65         O  0.79849362  0.72363795  0.22797690    -0.79700
O66         O  0.70385925  0.76412747  0.23931870    -0.79800
C67         C  0.69662033  0.75560521  0.21642514     1.10000
C68         C  0.81256397  0.74307561  0.23199266     1.09900
C69         C  0.73859672  0.79741949  0.23255000     1.10000
C70         C  0.76209300  0.68004278  0.20723466     1.09900
O71         O  0.72657295  0.67694221  0.24733918    -0.79700
O72         O  0.77310026  0.78877759  0.28441796    -0.79800
O73         O  0.70162290  0.73902401  0.28239621    -0.79700
O74         O  0.80201828  0.70032064  0.27490735    -0.79700
O75         O  0.78104142  0.73518441  0.28836845    -0.79800
O76         O  0.69000131  0.71452048  0.24916645    -0.79700
O77         O  0.74967416  0.69373434  0.27907004    -0.79700
O78         O  0.73094738  0.78386776  0.29157368    -0.79800
Co79       Co  0.71968408  0.70826235  0.22570218     1.51500
Co80       Co  0.76806057  0.76033680  0.25980377     1.51700
Co81       Co  0.73281520  0.75506059  0.26613677     1.51600
Co82       Co  0.77363162  0.71043147  0.25394078     1.51500
O83         O  0.74789070  0.73166833  0.24014655    -1.41700
C84         C  0.73559810  0.67575784  0.27027764     1.09900
C85         C  0.75226278  0.79626303  0.29531863     1.10000
C86         C  0.68518027  0.72489085  0.27082370     1.09900
C87         C  0.80162712  0.72101886  0.28849751     1.09900
C88         C  0.48351190  0.02004015  0.98822233     0.02700
C89         C  0.50415129  0.02040080  0.00631735     0.02700
C90         C  0.50654860  0.00069551  0.02518510     0.02700
C91         C  0.48808009  0.98057020  0.02602835     0.02700
C92         C  0.46669229  0.98062305  0.00883180     0.02700
C93         C  0.46455419  0.00033381  0.98982117     0.02700
C94         C  0.67665859  0.01178738  0.18029851     0.80600
N95         N  0.68589816  0.98843958  0.18805059    -0.77700
C96         C  0.67738745  0.96645057  0.17625414     0.83100
N97         N  0.65973486  0.96794631  0.15676478    -0.77600
C98         C  0.65052894  0.99099771  0.14873837     0.83200
N99         N  0.65890270  0.01286851  0.16068170    -0.79300
C100        C  0.66746361  0.17539257  0.01279707     0.80600
N101        N  0.64701892  0.15924383  0.01056028    -0.77700
C102        C  0.64080014  0.14820725  0.98765836     0.83100
N103        N  0.65533674  0.15326698  0.96652021    -0.77600
C104        C  0.67564054  0.16991656  0.96793671     0.83200
N105        N  0.68193622  0.18096919  0.99135548    -0.79300
C106        C  0.30245223  0.02974484  0.82815475     0.80600
N107        N  0.32108247  0.03056392  0.84691278    -0.77700
C108        C  0.33505337  0.00926983  0.85245833     0.83100
N109        N  0.33002329  0.98706717  0.83966557    -0.77600
C110        C  0.31125736  0.98564703  0.82131967     0.83200
N111        N  0.29765257  0.00719819  0.81520704    -0.79300
C112        C  0.51215536  0.18002368  0.82157133     0.80600
N113        N  0.51293128  0.15965607  0.83835715    -0.77700
C114        C  0.49185029  0.15303800  0.85245772     0.83100
N115        N  0.46988531  0.16655177  0.84923050    -0.77600
C116        C  0.46871919  0.18678691  0.83255064     0.83200
N117        N  0.49000794  0.19368592  0.81889783    -0.79300
C118        C  0.47938792  0.81622226  0.18435093     0.80600
N119        N  0.47921583  0.83749518  0.16897394    -0.77700
C120        C  0.50088285  0.84508051  0.15649789     0.83100
N121        N  0.52292831  0.83162670  0.15979503    -0.77600
C122        C  0.52342055  0.81088027  0.17591114     0.83200
N123        N  0.50158628  0.80312477  0.18801523    -0.79300
C124        C  0.30327897  0.82054713  0.02939506     0.80600
N125        N  0.29673574  0.80769558  0.00693170    -0.77700
C126        C  0.30966041  0.81272071  0.98431752     0.83100
N127        N  0.32890914  0.83057015  0.98457727    -0.77600
C128        C  0.33550672  0.84346324  0.00657267     0.83200
N129        N  0.32263560  0.83835355  0.02890143    -0.79300
C130        C  0.02857395  0.49224069  0.98163593     0.02700
C131        C  0.00997213  0.47234567  0.98103489     0.02700
C132        C  0.99206207  0.46989134  0.00143800     0.02700
C133        C  0.99203090  0.48800489  0.02187019     0.02700
C134        C  0.01030942  0.50821895  0.02213896     0.02700
C135        C  0.02869798  0.51026649  0.00216266     0.02700
C136        C  0.17086684  0.68848604  0.96655224     0.80600
N137        N  0.18546778  0.69239655  0.98826435    -0.77700
C138        C  0.18217810  0.67741354  0.00966586     0.83100
N139        N  0.16413143  0.65844115  0.00928177    -0.77600
C140        C  0.14907939  0.65461371  0.98798732     0.83200
N141        N  0.15243712  0.66968998  0.96656656    -0.79300
C142        C  0.17836000  0.52610960  0.80974416     0.80600
N143        N  0.19352368  0.50493619  0.80752439    -0.77700
C144        C  0.18855125  0.48351615  0.82198429     0.83100
N145        N  0.16866838  0.48360969  0.83890808    -0.77600
C146        C  0.15363840  0.50464227  0.84148037     0.83200
N147        N  0.15845677  0.52581540  0.82675349    -0.79300
C148        C  0.97402122  0.66500315  0.18691492     0.80600
N149        N  0.97327194  0.64705907  0.16766721    -0.77700
C150        C  0.99337389  0.63128596  0.16353024     0.83100
N151        N  0.01458965  0.63365400  0.17857470    -0.77600
C152        C  0.01613041  0.65145483  0.19777969     0.83200
N153        N  0.99565166  0.66728357  0.20214797    -0.79300
C154        C  0.82223593  0.51035857  0.17246857     0.80600
N155        N  0.84017852  0.50889900  0.15359589    -0.77700
C156        C  0.85435861  0.48745830  0.15047433     0.83100
N157        N  0.85037419  0.46689613  0.16642729    -0.77600
C158        C  0.83210536  0.46783978  0.18536127     0.83200
N159        N  0.81808321  0.48971906  0.18833855    -0.79300
C160        C  0.01381866  0.30968235  0.81903113     0.80600
N161        N  0.01592907  0.32699215  0.83871090    -0.77700
C162        C  0.99557588  0.34094387  0.84638078     0.83100
N163        N  0.97246853  0.33715654  0.83476902    -0.77600
C164        C  0.96955720  0.31959129  0.81534770     0.83200
N165        N  0.99042831  0.30589281  0.80719590    -0.79300
C166        C  0.84059812  0.30255449  0.01742804     0.80600
N167        N  0.83057131  0.29214562  0.99520891    -0.77700
C168        C  0.83841308  0.30131687  0.97166778     0.83100
N169        N  0.85587209  0.32080989  0.97056733    -0.77600
C170        C  0.86576101  0.33111042  0.99260565     0.83200
N171        N  0.85812224  0.32191442  0.01591357    -0.79300
C172        C  0.51179804  0.48529748  0.52752067     0.02700
C173        C  0.52921583  0.48258909  0.50678123     0.02700
C174        C  0.52833434  0.49968799  0.48534733     0.02700
C175        C  0.51008126  0.51960913  0.48469658     0.02700
C176        C  0.49315141  0.52281532  0.50587148     0.02700
C177        C  0.49373200  0.50549514  0.52725160     0.02700
C178        C  0.52978189  0.34500947  0.71143267     0.80600
N179        N  0.53207219  0.36281666  0.69215494    -0.77700
C180        C  0.51254398  0.36671116  0.67502773     0.83100
N181        N  0.49040891  0.35288226  0.67736366    -0.77600
C182        C  0.48762928  0.33542500  0.69690539     0.83200
N183        N  0.50747455  0.33143081  0.71378377    -0.79300
C184        C  0.33710601  0.68787800  0.48087200     0.80600
N185        N  0.35241814  0.66683872  0.48008302    -0.77700
C186        C  0.36734549  0.66055862  0.50077007     0.83100
N187        N  0.36643043  0.67496944  0.52266695    -0.77600
C188        C  0.35072964  0.69563456  0.52416527     0.83200
N189        N  0.33624491  0.70236590  0.50299748    -0.79300
C190        C  0.68863767  0.50372340  0.32740676     0.80600
N191        N  0.67306038  0.50239678  0.34843486    -0.77700
C192        C  0.66203927  0.47973124  0.35548336     0.83100
N193        N  0.66674074  0.45812451  0.34149312    -0.77600
C194        C  0.68268426  0.45914193  0.32059587     0.83200
N195        N  0.69341125  0.48202976  0.31354674    -0.79300
C196        C  0.46569933  0.66235656  0.30772702     0.80600
N197        N  0.48717484  0.67587278  0.30053732    -0.77700
C198        C  0.51010211  0.67170263  0.31297364     0.83100
N199        N  0.51144883  0.65361765  0.33208596    -0.77600
C200        C  0.49045343  0.63950578  0.33876230     0.83200
N201        N  0.46767122  0.64409544  0.32666013    -0.79300
C202        C  0.33793793  0.53313161  0.69127344     0.80600
N203        N  0.32402402  0.51200611  0.69861534    -0.77700
C204        C  0.32858984  0.48867319  0.68756205     0.83100
N205        N  0.34714404  0.48665327  0.66922722    -0.77600
C206        C  0.36129527  0.50743713  0.66197901     0.83200
N207        N  0.35656457  0.53066031  0.67300225    -0.79300
C208        C  0.68104857  0.31721495  0.51843534     0.80600
N209        N  0.68453715  0.30180888  0.49729201    -0.77700
C210        C  0.67159184  0.30682573  0.47469207     0.83100
N211        N  0.65530687  0.32708822  0.47345013    -0.77600
C212        C  0.65198105  0.34256262  0.49422681     0.83200
N213        N  0.66486106  0.33753903  0.51662656    -0.79300
C214        C  0.98137177  0.00090859  0.47554552     0.02700
C215        C  0.99969570  0.98110012  0.47740084     0.02700
C216        C  0.01935628  0.98272575  0.49636685     0.02700
C217        C  0.02033880  0.00368926  0.51386014     0.02700
C218        C  0.00157530  0.02311267  0.51238795     0.02700
C219        C  0.98208771  0.02169964  0.49321659     0.02700
C220        C  0.03062280  0.20213491  0.65521623     0.80600
N221        N  0.00990343  0.20463661  0.67121139    -0.77700
C222        C  0.98889459  0.18905463  0.66781182     0.83100
N223        N  0.98897658  0.17108136  0.64864443    -0.77600
C224        C  0.00925261  0.16873074  0.63252343     0.83200
N225        N  0.02996846  0.18430558  0.63585781    -0.79300
C226        C  0.17838629  0.03424347  0.67579723     0.80600
N227        N  0.15807054  0.03247837  0.65914955    -0.77700
C228        C  0.14525296  0.00992250  0.65591826     0.83100
N229        N  0.15286906  0.98892528  0.66937924    -0.77600
C230        C  0.17328133  0.99003933  0.68592564     0.83200
N231        N  0.18619331  0.01283784  0.68914783    -0.79300
C232        C  0.18385964  0.82953354  0.50555859     0.80600
N233        N  0.16744694  0.84964923  0.50637259    -0.77700
C234        C  0.16050606  0.86222817  0.48445398     0.83100
N235        N  0.16963626  0.85435479  0.46125512    -0.77600
C236        C  0.18590274  0.83411946  0.45991753     0.83200
N237        N  0.19300530  0.82147204  0.48212988    -0.79300
C238        C  0.80735555  0.16243457  0.53300020     0.80600
N239        N  0.82716595  0.14565960  0.53202751    -0.77700
C240        C  0.84140631  0.14315520  0.51035106     0.83100
N241        N  0.83578125  0.15762893  0.48922949    -0.77600
C242        C  0.81594968  0.17448941  0.48946604     0.83200
N243        N  0.80152932  0.17695235  0.51151467    -0.79300
C244        C  0.80562065  0.96879961  0.33005141     0.80600
N245        N  0.80312135  0.98875929  0.31301786    -0.77700
C246        C  0.81888171  0.00974835  0.31505831     0.83100
N247        N  0.83722281  0.01047314  0.33402450    -0.77600
C248        C  0.83961495  0.99072636  0.35114468     0.83200
N249        N  0.82374758  0.97008645  0.34911075    -0.79300
C250        C  0.96184953  0.81018884  0.32994788     0.80600
N251        N  0.98281049  0.80057099  0.31767447    -0.77700
C252        C  0.00603785  0.81269726  0.31973369     0.83100
N253        N  0.00826809  0.83423053  0.33463312    -0.77600
C254        C  0.98767493  0.84349038  0.34766226     0.83200
N255        N  0.96448205  0.83150445  0.34510052    -0.79300
O256        O  0.25656357  0.22205377  0.70332823    -0.79700
O257        O  0.23401231  0.31928748  0.74510671    -0.79700
O258        O  0.20534304  0.25125001  0.71881934    -0.79800
O259        O  0.30940509  0.27961745  0.74832658    -0.79700
O260        O  0.19418522  0.28591427  0.73811433    -0.79800
O261        O  0.29761452  0.25816119  0.71329800    -0.79700
O262        O  0.27154610  0.30669607  0.73360332    -0.79700
O263        O  0.22488130  0.20751046  0.72778597    -0.79800
C264        C  0.23814679  0.20627838  0.70720993     1.10000
C265        C  0.25429725  0.32311099  0.73251773     1.09900
C266        C  0.19039676  0.26983362  0.72037692     1.10000
C267        C  0.31410255  0.27187169  0.72547304     1.09900
O268        O  0.30279873  0.23505554  0.76413591    -0.79700
O269        O  0.20473705  0.25903541  0.78551352    -0.79800
O270        O  0.23763636  0.21956422  0.78119303    -0.79700
O271        O  0.28501013  0.31204269  0.78472858    -0.79700
O272        O  0.24768058  0.29456315  0.79358843    -0.79800
O273        O  0.26459480  0.20170846  0.75416526    -0.79700
O274        O  0.28208676  0.25894429  0.79207974    -0.79700
O275        O  0.18806314  0.22726222  0.76227838    -0.79800
Co276      Co  0.27819863  0.23171543  0.73403539     1.51500
Co277      Co  0.22326423  0.28676358  0.76360962     1.51700
Co278      Co  0.22149597  0.23793486  0.75095961     1.51600
Co279      Co  0.27429193  0.28325051  0.76323739     1.51500
O280        O  0.25133344  0.25951138  0.74465966    -1.41700
C281        C  0.30004302  0.24356728  0.78704371     1.09900
C282        C  0.18499405  0.24513017  0.77884229     1.10000
C283        C  0.25187203  0.20087393  0.77503106     1.09900
C284        C  0.26289226  0.31417440  0.79489443     1.09900
O285        O  0.77827666  0.18932589  0.26965084    -0.79700
O286        O  0.77809261  0.28658298  0.22841415    -0.79700
O287        O  0.78047461  0.22294767  0.19825076    -0.79800
O288        O  0.77889890  0.25311015  0.30077500    -0.79700
O289        O  0.76870338  0.26174651  0.18834123    -0.79800
O290        O  0.76569717  0.21465387  0.31103585    -0.79700
O291        O  0.76685271  0.29443642  0.26920500    -0.79700
O292        O  0.76734845  0.18211248  0.22842007    -0.79800
C293        C  0.77974848  0.17604368  0.24892776     1.10000
C294        C  0.77935447  0.30048788  0.24873114     1.09900
C295        C  0.78216493  0.24265220  0.18368738     1.10000
C296        C  0.77897607  0.23402058  0.31633904     1.09900
O297        O  0.71894499  0.23027829  0.29460369    -0.79700
O298        O  0.72190419  0.24464179  0.19816404    -0.79800
O299        O  0.71772465  0.20276677  0.23960672    -0.79700
O300        O  0.71772532  0.27141953  0.25571398    -0.79700
O301        O  0.73075667  0.29263971  0.22266034    -0.79800
O302        O  0.73071155  0.18190620  0.27316210    -0.79700
O303        O  0.73036462  0.27099126  0.30512950    -0.79700
O304        O  0.73286835  0.20343548  0.19095561    -0.79800
Co305      Co  0.75015947  0.21365866  0.27711020     1.51500
Co306      Co  0.75061837  0.26148126  0.22024173     1.51700
Co307      Co  0.74952160  0.21535109  0.22082966     1.51600
Co308      Co  0.74894257  0.26024194  0.27628985     1.51500
O309        O  0.76278116  0.23773303  0.24897491    -1.41700
C310        C  0.71603742  0.25112780  0.30804296     1.09900
C311        C  0.71980985  0.22334032  0.18521734     1.10000
C312        C  0.71799061  0.18182263  0.25265296     1.09900
C313        C  0.71781434  0.29232842  0.24274367     1.09900
O314        O  0.27768580  0.69864839  0.23175734    -0.79700
O315        O  0.20498006  0.68378857  0.26727925    -0.79700
O316        O  0.26586198  0.74221392  0.30012285    -0.79800
O317        O  0.22176732  0.70489914  0.19791816    -0.79700
O318        O  0.24667989  0.70453850  0.29712262    -0.79800
O319        O  0.25846881  0.72510650  0.19111633    -0.79700
O320        O  0.18406619  0.70146825  0.23388685    -0.79700
O321        O  0.28885875  0.71990012  0.26481175    -0.79800
C322        C  0.29191737  0.70027375  0.25116510     1.10000
C323        C  0.18716686  0.68324772  0.25019149     1.09900
C324        C  0.26110288  0.72007553  0.30963484     1.10000
C325        C  0.24083589  0.70980618  0.18358548     1.09900
O326        O  0.25462898  0.77066094  0.22062326    -0.79700
O327        O  0.21900299  0.75277770  0.29766887    -0.79800
O328        O  0.29486860  0.77009574  0.25897379    -0.79700
O329        O  0.18551888  0.75699755  0.24020632    -0.79700
O330        O  0.17858699  0.73075785  0.27298823    -0.79800
O331        O  0.30016437  0.74788996  0.22190511    -0.79700
O332        O  0.22010283  0.75949790  0.19909161    -0.79700
O333        O  0.23959359  0.77818548  0.26943108    -0.79800
Co334      Co  0.26515206  0.73457728  0.22843284     1.51500
Co335      Co  0.21415207  0.71803670  0.28173381     1.51700
Co336      Co  0.26284231  0.74891200  0.26170481     1.51600
Co337      Co  0.20476960  0.73090615  0.21988032     1.51500
O338        O  0.23230708  0.72709876  0.24790619    -1.41700
C339        C  0.23959986  0.77390006  0.20152732     1.09900
C340        C  0.22556155  0.77511176  0.28956028     1.10000
C341        C  0.30864012  0.76423424  0.23891192     1.09900
C342        C  0.17184830  0.74979897  0.25913729     1.09900
C343        C  0.11224245  0.78976912  0.27649865     0.16400
C344        C  0.09497417  0.80878676  0.28462521    -0.32700
C345        C  0.07009967  0.80085785  0.29183286     0.20800
C346        C  0.06249661  0.77525753  0.29024920     0.02900
C347        C  0.07977759  0.75627052  0.28228162    -0.22400
C348        C  0.10484300  0.76407048  0.27587766     0.12100
S349        S  0.14363828  0.79511515  0.26790005    -0.06100
C350        C  0.14704638  0.76230220  0.26450838    -0.09500
C351        C  0.12476411  0.74827602  0.26924885    -0.26100
S352        S  0.03158428  0.76953653  0.29993506    -0.03300
C353        C  0.02902570  0.80183090  0.30709995    -0.16800
C354        C  0.05103097  0.81616855  0.30167548    -0.14800
H355        H  0.10083712  0.82878615  0.28582591     0.20600
H356        H  0.07407526  0.73607922  0.28166754     0.16600
H357        H  0.12327029  0.72752181  0.26812412     0.19100
H358        H  0.05308836  0.83661242  0.30511343     0.12500
C359        C  0.80115458  0.06511238  0.26853479     0.16400
C360        C  0.78832112  0.08241207  0.25200028    -0.32700
C361        C  0.79631052  0.10833203  0.25248783     0.20800
C362        C  0.81666402  0.11640171  0.26810715     0.02900
C363        C  0.83011850  0.09894927  0.28371204    -0.22400
C364        C  0.82158146  0.07333419  0.28392476     0.12100
S365        S  0.79201258  0.03385149  0.27401516    -0.06100
C366        C  0.81569875  0.03210696  0.29758411    -0.09500
C367        C  0.83015836  0.05447836  0.30036078    -0.26100
S368        S  0.82054462  0.14893682  0.26993235    -0.03300
C369        C  0.79414578  0.15191645  0.24995201    -0.16800
C370        C  0.78370320  0.12874075  0.24133904    -0.14800
H371        H  0.77174139  0.07632632  0.24069898     0.20600
H372        H  0.84533145  0.10543951  0.29662268     0.16600
H373        H  0.84531530  0.05727942  0.31462346     0.19100
H374        H  0.76608227  0.12697232  0.23014789     0.12500
C375        C  0.79454761  0.21415128  0.42944807     0.16400
C376        C  0.78180018  0.22922888  0.41073609    -0.32700
C377        C  0.79103750  0.22867845  0.38507335     0.20800
C378        C  0.81187123  0.21371224  0.37829685     0.02900
C379        C  0.82487228  0.19910467  0.39702437    -0.22400
C380        C  0.81569185  0.19967872  0.42259250     0.12100
S381        S  0.78552270  0.21047400  0.46134100    -0.06100
C382        C  0.81051672  0.18914620  0.46530589    -0.09500
C383        C  0.82499570  0.18561377  0.44299498    -0.26100
S384        S  0.81794407  0.21285202  0.34570919    -0.03300
C385        C  0.79279746  0.23370429  0.34109145    -0.16800
C386        C  0.78017042  0.24036271  0.36378203    -0.14800
H387        H  0.76501018  0.24028497  0.41576594     0.20600
H388        H  0.84089814  0.18704460  0.39171449     0.16600
H389        H  0.84119823  0.17273284  0.44148724     0.19100
H390        H  0.76253007  0.25123920  0.36434862     0.12500
C391        C  0.18679728  0.81157259  0.38960921     0.16400
C392        C  0.17986373  0.80340604  0.36459000    -0.32700
C393        C  0.19841598  0.80527306  0.34505251     0.20800
C394        C  0.22277894  0.81501603  0.35000980     0.02900
C395        C  0.22960335  0.82367632  0.37507249    -0.22400
C396        C  0.21110551  0.82149854  0.39481894     0.12100
S397        S  0.16684205  0.81071343  0.41570601    -0.06100
C398        C  0.19139923  0.82372969  0.43407883    -0.09500
C399        C  0.21387404  0.82855692  0.42050849    -0.26100
S400        S  0.24348944  0.81176817  0.32445306    -0.03300
C401        C  0.21931184  0.79629415  0.30730625    -0.16800
C402        C  0.19614736  0.79521570  0.32055944    -0.14800
H403        H  0.16108735  0.79525533  0.36070313     0.20600
H404        H  0.24881248  0.83091288  0.37923314     0.16600
H405        H  0.23089284  0.83778609  0.42872663     0.19100
H406        H  0.17966160  0.78414782  0.31413948     0.12500
C407        C  0.21970122  0.09552145  0.68615841     0.16400
C408        C  0.23810132  0.11413297  0.69334905    -0.32700
C409        C  0.23274216  0.14004960  0.68764355     0.20800
C410        C  0.21018134  0.14713837  0.67516286     0.02900
C411        C  0.19217316  0.12848468  0.66727163    -0.22400
C412        C  0.19739384  0.10264618  0.67325237     0.12100
S413        S  0.22140327  0.06327365  0.69321347    -0.06100
C414        C  0.19179170  0.05935691  0.67844726    -0.09500
C415        C  0.18146975  0.08203487  0.66864094    -0.26100
S416        S  0.20516896  0.17963706  0.67415029    -0.03300
C417        C  0.23386591  0.18382658  0.69050804    -0.16800
C418        C  0.24660117  0.16104921  0.69601240    -0.14800
H419        H  0.25529530  0.10878244  0.70399220     0.20600
H420        H  0.17425483  0.13397908  0.65806346     0.16600
H421        H  0.16297606  0.08347431  0.65898120     0.19100
H422        H  0.26352501  0.15978414  0.70834049     0.12500
C423        C  0.09869621  0.23052730  0.66148126     0.16400
C424        C  0.12542621  0.23372352  0.66111445    -0.32700
C425        C  0.13646762  0.25092595  0.67897882     0.20800
C426        C  0.12147283  0.26519939  0.69575015     0.02900
C427        C  0.09459883  0.26215690  0.69597648    -0.22400
C428        C  0.08360751  0.24407270  0.67878837     0.12100
S429        S  0.08231773  0.20856021  0.64317260    -0.06100
C430        C  0.05474837  0.21682740  0.65948951    -0.09500
C431        C  0.05824257  0.23626207  0.67777707    -0.26100
S432        S  0.13880793  0.28317382  0.71754971    -0.03300
C433        C  0.16647109  0.27016769  0.70490733    -0.16800
C434        C  0.16223917  0.25374370  0.68406079    -0.14800
H435        H  0.13722285  0.22224499  0.64840823     0.20600
H436        H  0.08296454  0.27237155  0.70988493     0.16600
H437        H  0.04331643  0.24358740  0.69025536     0.19100
H438        H  0.17704452  0.24258600  0.67473116     0.12500
C439        C  0.00438989  0.90271294  0.38966243     0.16400
C440        C  0.01490992  0.92525832  0.40052978    -0.32700
C441        C  0.00488179  0.93382818  0.42425375     0.20800
C442        C  0.98550130  0.92031156  0.43682454     0.02900
C443        C  0.97486107  0.89788040  0.42587275    -0.22400
C444        C  0.98457122  0.88957709  0.40191677     0.12100
S445        S  0.01415399  0.88890703  0.36124309    -0.06100
C446        C  0.99090451  0.86550100  0.36557580    -0.09500
C447        C  0.97654737  0.86839017  0.38802909    -0.26100
S448        S  0.97589370  0.93387670  0.46537284    -0.03300
C449        C  0.99771911  0.95836326  0.45998291    -0.16800
C450        C  0.01195735  0.95575423  0.43747318    -0.14800
H451        H  0.03017126  0.93575205  0.39083218     0.20600
H452        H  0.95951722  0.88745770  0.43551501     0.16600
H453        H  0.96146620  0.85529014  0.39419959     0.19100
H454        H  0.02630580  0.96947120  0.43090722     0.12500
C455        C  0.93525025  0.00503878  0.41741699     0.16400
C456        C  0.92256554  0.01115075  0.39413959    -0.32700
C457        C  0.89784903  0.00095165  0.39031330     0.20800
C458        C  0.88646663  0.98488914  0.40858237     0.02900
C459        C  0.89901675  0.97903706  0.43202038    -0.22400
C460        C  0.92350077  0.98970631  0.43608856     0.12100
S461        S  0.96528624  0.01558026  0.42573823    -0.06100
C462        C  0.96149448  0.99996495  0.45499882    -0.09500
C463        C  0.93845727  0.98690706  0.45787715    -0.26100
S464        S  0.85684436  0.97357055  0.39974934    -0.03300
C465        C  0.85957530  0.99119582  0.37145050    -0.16800
C466        C  0.88234457  0.00491021  0.36908569    -0.14800
H467        H  0.93153408  0.02342928  0.37967283     0.20600
H468        H  0.89004480  0.96678088  0.44650493     0.16600
H469        H  0.93298506  0.97608885  0.47504400     0.19100
H470        H  0.88749649  0.01669693  0.35246413     0.12500
C471        C  0.89166809  0.09011172  0.51680257     0.16400
C472        C  0.90603869  0.06858180  0.52402529    -0.32700
C473        C  0.92671625  0.06194162  0.50821178     0.20800
C474        C  0.93326946  0.07638434  0.48648149     0.02900
C475        C  0.91872853  0.09782033  0.47910521    -0.22400
C476        C  0.89767476  0.10417042  0.49464880     0.12100
S477        S  0.86568602  0.10105134  0.53330118    -0.06100
C478        C  0.86244711  0.12449705  0.50979530    -0.09500
C479        C  0.88082837  0.12389041  0.49042285    -0.26100
S480        S  0.95973451  0.06558487  0.47050653    -0.03300
C481        C  0.96141852  0.04104603  0.49299079    -0.16800
C482        C  0.94259956  0.04143646  0.51180884    -0.14800
H483        H  0.90121401  0.05738313  0.54115506     0.20600
H484        H  0.92353458  0.10898259  0.46194832     0.16600
H485        H  0.88178728  0.13712887  0.47412469     0.19100
H486        H  0.94084706  0.02753232  0.52745053     0.12500
C487        C  0.01460175  0.12167944  0.57513403     0.16400
C488        C  0.02025920  0.10873719  0.55191840    -0.32700
C489        C  0.01006544  0.08381353  0.54861193     0.20800
C490        C  0.99520879  0.07221968  0.56770689     0.02900
C491        C  0.98896198  0.08541801  0.59048806    -0.22400
C492        C  0.99888318  0.11036570  0.59366545     0.12100
S493        S  0.02612044  0.15145162  0.58371834    -0.06100
C494        C  0.00902363  0.14875935  0.61222736    -0.09500
C495        C  0.99528937  0.12595709  0.61474708    -0.26100
S496        S  0.98600063  0.04135126  0.56095089    -0.03300
C497        C  0.00154039  0.04431299  0.53167847    -0.16800
C498        C  0.01343633  0.06794503  0.52759827    -0.14800
H499        H  0.03233169  0.11755368  0.53725435     0.20600
H500        H  0.97714165  0.07647783  0.60529139     0.16600
H501        H  0.98378907  0.12077633  0.63147618     0.19100
H502        H  0.02418849  0.07302868  0.51034682     0.12500
C503        C  0.07571463  0.01730955  0.56154170     0.16400
C504        C  0.09630692  0.02801643  0.57548944    -0.32700
C505        C  0.10308013  0.01638007  0.59911636     0.20800
C506        C  0.09030396  0.99468267  0.60827785     0.02900
C507        C  0.06947293  0.98411196  0.59445178    -0.22400
C508        C  0.06237345  0.99609433  0.57102937     0.12100
S509        S  0.06439546  0.02892651  0.53266803    -0.06100
C510        C  0.04096094  0.00544024  0.53373614    -0.09500
C511        C  0.04219704  0.98932568  0.55520012    -0.26100
S512        S  0.10243280  0.98276302  0.63676824    -0.03300
C513        C  0.12457092  0.00761798  0.63648874    -0.16800
C514        C  0.12251910  0.02408387  0.61539192    -0.14800
H515        H  0.10655178  0.04479366  0.56828598     0.20600
H516        H  0.05921099  0.96733684  0.60165790     0.16600
H517        H  0.02870581  0.97386471  0.55924251     0.19100
H518        H  0.13512553  0.04037094  0.61172370     0.12500
C519        C  0.11395062  0.91842494  0.47946723     0.16400
C520        C  0.10034630  0.94055166  0.47258098    -0.32700
C521        C  0.07724133  0.94510773  0.48548199     0.20800
C522        C  0.06791522  0.92833121  0.50430278     0.02900
C523        C  0.08183021  0.90652346  0.51164240    -0.22400
C524        C  0.10505488  0.90208347  0.49887208     0.12100
S525        S  0.14157156  0.90862053  0.46496180    -0.06100
C526        C  0.14135974  0.88259778  0.48567649    -0.09500
C527        C  0.12098693  0.88166414  0.50281417    -0.26100
S528        S  0.03883589  0.93665022  0.51671094    -0.03300
C529        C  0.03979292  0.96332043  0.49686098    -0.16800
C530        C  0.06120283  0.96537956  0.48128094    -0.14800
H531        H  0.10727569  0.95346776  0.45754272     0.20600
H532        H  0.07471210  0.89340915  0.52641162     0.16600
H533        H  0.11757015  0.86636071  0.51677498     0.19100
H534        H  0.06469452  0.98085802  0.46754173     0.12500
C535        C  0.67562961  0.26841416  0.36435323     0.16400
C536        C  0.66302101  0.28379153  0.38232364    -0.32700
C537        C  0.67043838  0.28150723  0.40843291     0.20800
C538        C  0.68907989  0.26428182  0.41656462     0.02900
C539        C  0.70090733  0.24803236  0.39869183    -0.22400
C540        C  0.69380236  0.25066146  0.37250599     0.12100
S541        S  0.67393887  0.27284270  0.33154517    -0.06100
C542        C  0.69809165  0.25076987  0.32913912    -0.09500
C543        C  0.70600808  0.23968710  0.35215485    -0.26100
S544        S  0.69721200  0.26669491  0.44877650    -0.03300
C545        C  0.67528606  0.29126619  0.45112575    -0.16800
C546        C  0.66231522  0.29676500  0.42815786    -0.14800
H547        H  0.64939110  0.29821851  0.37604071     0.20600
H548        H  0.71609381  0.23512461  0.40464292     0.16600
H549        H  0.72242195  0.22710985  0.35409462     0.19100
H550        H  0.64834350  0.31194584  0.42569292     0.12500
C551        C  0.28499536  0.43309230  0.71164936     0.16400
C552        C  0.26726929  0.41682077  0.72425805    -0.32700
C553        C  0.26704353  0.39059551  0.71736399     0.20800
C554        C  0.28364455  0.38114593  0.69873225     0.02900
C555        C  0.30102156  0.39738325  0.68599459    -0.22400
C556        C  0.30137710  0.42340612  0.69298076     0.12100
S557        S  0.28932311  0.46532100  0.71765107    -0.06100
C558        C  0.31345675  0.46553117  0.69474402    -0.09500
C559        C  0.31762816  0.44178792  0.68329081    -0.26100
S560        S  0.28269094  0.34860094  0.69500804    -0.03300
C561        C  0.25971532  0.34739359  0.71890656    -0.16800
C562        C  0.25286602  0.37124238  0.72877755    -0.14800
H563        H  0.25472975  0.42410932  0.73919806     0.20600
H564        H  0.31429134  0.38988577  0.67180273     0.16600
H565        H  0.33198219  0.43805768  0.66863505     0.19100
H566        H  0.24005615  0.37401680  0.74501012     0.12500
C567        C  0.40318060  0.67771831  0.26903389     0.16400
C568        C  0.38429296  0.68518888  0.25080270    -0.32700
C569        C  0.35830579  0.68043019  0.25693386     0.20800
C570        C  0.35143811  0.66926363  0.28039342     0.02900
C571        C  0.37029870  0.66111778  0.29822747    -0.22400
C572        C  0.39623054  0.66550758  0.29194661     0.12100
S573        S  0.43574645  0.68260710  0.26601726    -0.06100
C574        C  0.44010864  0.66726367  0.29557710    -0.09500
C575        C  0.41722057  0.65930641  0.30703415    -0.26100
S576        S  0.31903060  0.66923358  0.28611218    -0.03300
C577        C  0.31437326  0.68371979  0.25623110    -0.16800
C578        C  0.33708634  0.68790411  0.24270549    -0.14800
H579        H  0.38957469  0.69488592  0.23290765     0.20600
H580        H  0.36496480  0.65243083  0.31660885     0.16600
H581        H  0.41595839  0.64959773  0.32565687     0.19100
H582        H  0.33811106  0.69819655  0.22436629     0.12500
C583        C  0.70104345  0.40307285  0.27532362     0.16400
C584        C  0.71013867  0.38683065  0.25554018    -0.32700
C585        C  0.70578421  0.36013600  0.25841590     0.20800
C586        C  0.69304884  0.35030861  0.27989790     0.02900
C587        C  0.68405362  0.36645573  0.29940220    -0.22400
C588        C  0.68830321  0.39289380  0.29663985     0.12100
S589        S  0.70437379  0.43590506  0.27630715    -0.06100
C590        C  0.68823311  0.43562281  0.30560832    -0.09500
C591        C  0.68095437  0.41132523  0.31395834    -0.26100
S592        S  0.69076753  0.31762132  0.28113286    -0.03300
C593        C  0.70729157  0.31660905  0.25255229    -0.16800
C594        C  0.71393549  0.34073969  0.24237171    -0.14800
H595        H  0.72035387  0.39457060  0.23895772     0.20600
H596        H  0.67441072  0.35864636  0.31629164     0.16600
H597        H  0.67087742  0.40727315  0.33188587     0.19100
H598        H  0.72535308  0.34383504  0.22508763     0.12500
C599        C  0.30536724  0.71550334  0.41924860     0.16400
C600        C  0.29720244  0.73110237  0.39850822    -0.32700
C601        C  0.28853328  0.71884257  0.37571321     0.20800
C602        C  0.28756291  0.69222078  0.37375856     0.02900
C603        C  0.29605336  0.67662272  0.39435569    -0.22400
C604        C  0.30512657  0.68890207  0.41697969     0.12100
S605        S  0.31717827  0.72659367  0.44836131    -0.06100
C606        C  0.32259192  0.69508474  0.45723950    -0.09500
C607        C  0.31512127  0.67712214  0.43863361    -0.26100
S608        S  0.27538655  0.68113403  0.34483434    -0.03300
C609        C  0.27214518  0.71270923  0.33503887    -0.16800
C610        C  0.28000201  0.73068304  0.35343444    -0.14800
H611        H  0.29774586  0.75190663  0.39999961     0.20600
H612        H  0.29573020  0.65582482  0.39277332     0.16600
H613        H  0.31747055  0.65649268  0.44062211     0.19100
H614        H  0.27900541  0.75137116  0.35082544     0.12500
C615        C  0.42687245  0.29731442  0.71562332     0.16400
C616        C  0.40790526  0.28330271  0.72880091    -0.32700
C617        C  0.38298270  0.28325384  0.71828845     0.20800
C618        C  0.37715218  0.29597118  0.69527291     0.02900
C619        C  0.39627234  0.30982682  0.68189935    -0.22400
C620        C  0.42115439  0.31043835  0.69280794     0.12100
S621        S  0.45772589  0.30130622  0.72643336    -0.06100
C622        C  0.46306785  0.32136839  0.70025567    -0.09500
C623        C  0.44191869  0.32425477  0.68383941    -0.26100
S624        S  0.34518369  0.29464160  0.68679883    -0.03300
C625        C  0.33976974  0.27730007  0.71486905    -0.16800
C626        C  0.36167730  0.27260253  0.72954888    -0.14800
H627        H  0.41218032  0.27360276  0.74698656     0.20600
H628        H  0.39176222  0.32039325  0.66428539     0.16600
H629        H  0.44152855  0.33638904  0.66667951     0.19100
H630        H  0.36182340  0.26270183  0.74810469     0.12500
C631        C  0.45417552  0.58464876  0.51149276     0.16400
C632        C  0.44462056  0.60883059  0.51808638    -0.32700
C633        C  0.42045224  0.61550528  0.50823752     0.20800
C634        C  0.40660289  0.59915889  0.49196964     0.02900
C635        C  0.41595477  0.57469691  0.48577135    -0.22400
C636        C  0.43988411  0.56773853  0.49621582     0.12100
S637        S  0.48329084  0.57326435  0.52121175    -0.06100
C638        C  0.47546446  0.54484809  0.50590968    -0.09500
C639        C  0.45198980  0.54464504  0.49311820    -0.26100
S640        S  0.37816651  0.61154939  0.48110254    -0.03300
C641        C  0.38475486  0.63856802  0.49942750    -0.16800
C642        C  0.40784444  0.63798089  0.51287160    -0.14800
H643        H  0.45552668  0.62186168  0.53042737     0.20600
H644        H  0.40503572  0.56164298  0.47345608     0.16600
H645        H  0.44429827  0.52849034  0.48218485     0.19100
H646        H  0.41516800  0.65336846  0.52511442     0.12500
C647        C  0.44971526  0.51886701  0.58591822     0.16400
C648        C  0.43688386  0.52927833  0.60734445    -0.32700
C649        C  0.41565500  0.51561269  0.61708788     0.20800
C650        C  0.40790841  0.49231463  0.60635062     0.02900
C651        C  0.42060811  0.48202130  0.58478454    -0.22400
C652        C  0.44145032  0.49600464  0.57466264     0.12100
S653        S  0.47581648  0.53247885  0.57119124    -0.06100
C654        C  0.47492037  0.50775870  0.54885636    -0.09500
C655        C  0.45573102  0.48962877  0.55330790    -0.26100
S656        S  0.38200421  0.47850988  0.62126066    -0.03300
C657        C  0.38112163  0.50473625  0.64177844    -0.16800
C658        C  0.40024133  0.52293798  0.63730416    -0.14800
H659        H  0.44303797  0.54736263  0.61590081     0.20600
H660        H  0.41435210  0.46402280  0.57610766     0.16600
H661        H  0.45235058  0.47273585  0.54141390     0.19100
H662        H  0.40273626  0.54058912  0.64826287     0.12500
C663        C  0.48696715  0.58344121  0.38792653     0.16400
C664        C  0.47974738  0.56233690  0.40343282    -0.32700
C665        C  0.49531533  0.55641877  0.42502702     0.20800
C666        C  0.51735316  0.57058028  0.43065581     0.02900
C667        C  0.52487919  0.59126874  0.41480105    -0.22400
C668        C  0.50910855  0.59745560  0.39346983     0.12100
S669        S  0.46964881  0.59505633  0.36211141    -0.06100
C670        C  0.49244216  0.61910584  0.35876918    -0.09500
C671        C  0.51250860  0.61772380  0.37662686    -0.26100
S672        S  0.53310354  0.56105197  0.45828084    -0.03300
C673        C  0.50967648  0.53787497  0.46241986    -0.16800
C674        C  0.49090341  0.53746127  0.44314497    -0.14800
H675        H  0.46237362  0.55145158  0.39926880     0.20600
H676        H  0.54197527  0.60250240  0.41929712     0.16600
H677        H  0.52840611  0.63129834  0.37770613     0.19100
H678        H  0.47485041  0.52408993  0.44255522     0.12500
C679        C  0.56926586  0.48609433  0.42499853     0.16400
C680        C  0.57870770  0.47888633  0.40061439    -0.32700
C681        C  0.60540031  0.47970907  0.39705190     0.20800
C682        C  0.62195765  0.48744087  0.41686735     0.02900
C683        C  0.61254771  0.49421944  0.44136874    -0.22400
C684        C  0.58588434  0.49345734  0.44488863     0.12100
S685        S  0.53752490  0.48667625  0.43317106    -0.06100
C686        C  0.54682599  0.49675260  0.46374092    -0.09500
C687        C  0.57310237  0.49963012  0.46717021    -0.26100
S688        S  0.65346140  0.48932674  0.40801909    -0.03300
C689        C  0.64427122  0.47923089  0.37746150    -0.16800
C690        C  0.61819760  0.47461210  0.37442170    -0.14800
H691        H  0.56579774  0.47323073  0.38499508     0.20600
H692        H  0.62541521  0.50030137  0.45686718     0.16600
H693        H  0.58230566  0.50548189  0.48519535     0.19100
H694        H  0.60898396  0.46924727  0.35624325     0.12500
C695        C  0.58459543  0.43474238  0.51394580     0.16400
C696        C  0.60655559  0.42114163  0.52137358    -0.32700
C697        C  0.61340884  0.39993279  0.50620605     0.20800
C698        C  0.59942083  0.39289215  0.48424216     0.02900
C699        C  0.57748414  0.40655153  0.47675902    -0.22400
C700        C  0.57028718  0.42738542  0.49230100     0.12100
S701        S  0.57298846  0.46090506  0.52989915    -0.06100
C702        C  0.54841951  0.46170341  0.50734240    -0.09500
C703        C  0.54932382  0.44265761  0.48856765    -0.26100
S704        S  0.61064347  0.36622102  0.46881415    -0.03300
C705        C  0.63392500  0.36411489  0.49271611    -0.16800
C706        C  0.63324268  0.38349433  0.51114803    -0.14800
H707        H  0.61759665  0.42660530  0.53846241     0.20600
H708        H  0.56628308  0.40093815  0.45983042     0.16600
H709        H  0.53560571  0.44047714  0.47277697     0.19100
H710        H  0.64623758  0.38514496  0.52763044     0.12500
C711        C  0.50666510  0.42885963  0.57540262     0.16400
C712        C  0.50081549  0.40567922  0.58801460    -0.32700
C713        C  0.50934421  0.40269236  0.61372142     0.20800
C714        C  0.52384959  0.42157445  0.62614712     0.02900
C715        C  0.52963631  0.44490265  0.61354455    -0.22400
C716        C  0.52035499  0.44822317  0.58803822     0.12100
S717        S  0.49753268  0.43616365  0.54436857    -0.06100
C718        C  0.51156965  0.46592138  0.54865791    -0.09500
C719        C  0.52303669  0.46977504  0.57277007    -0.26100
S720        S  0.53252515  0.41390019  0.65735324    -0.03300
C721        C  0.51550453  0.38549836  0.65381507    -0.16800
C722        C  0.50432185  0.38207649  0.62955975    -0.14800
H723        H  0.48968913  0.39075738  0.57833378     0.20600
H724        H  0.54050507  0.45994144  0.62332403     0.16600
H725        H  0.53293461  0.48726599  0.57861579     0.19100
H726        H  0.49302428  0.36538876  0.62385778     0.12500
C727        C  0.80692791  0.24700488  0.11546666     0.16400
C728        C  0.80900887  0.24556897  0.08831450    -0.32700
C729        C  0.81870751  0.26730115  0.07526179     0.20800
C730        C  0.82603536  0.28932771  0.08874195     0.02900
C731        C  0.82382360  0.29081384  0.11569684    -0.22400
C732        C  0.81426230  0.26917833  0.12862555     0.12100
S733        S  0.79369483  0.22374849  0.13491420    -0.06100
C734        C  0.79826460  0.24424787  0.16081211    -0.09500
C735        C  0.80951110  0.26763383  0.15453174    -0.26100
S736        S  0.83775159  0.31347482  0.06992375    -0.03300
C737        C  0.83269344  0.29392413  0.04335266    -0.16800
C738        C  0.82228838  0.26991265  0.04894931    -0.14800
H739        H  0.80300702  0.22845896  0.07782536     0.20600
H740        H  0.82917066  0.30818644  0.12614750     0.16600
H741        H  0.81181524  0.28364283  0.16791188     0.19100
H742        H  0.81820317  0.25506202  0.03471562     0.12500
C743        C  0.12304362  0.27022595  0.80978145     0.16400
C744        C  0.10505291  0.28401255  0.82417182    -0.32700
C745        C  0.07962924  0.28447530  0.81501201     0.20800
C746        C  0.07210899  0.27167026  0.79258204     0.02900
C747        C  0.09013149  0.25741923  0.77829114    -0.22400
C748        C  0.11576606  0.25701169  0.78747670     0.12100
S749        S  0.15522464  0.26949505  0.81658300    -0.06100
C750        C  0.15923352  0.25082931  0.78930270    -0.09500
C751        C  0.13648571  0.24549942  0.77581244    -0.26100
S752        S  0.04025369  0.27604100  0.78447048    -0.03300
C753        C  0.03731723  0.29542533  0.81157781    -0.16800
C754        C  0.05994321  0.29786398  0.82591996    -0.14800
H755        H  0.11078181  0.29455642  0.84143936     0.20600
H756        H  0.08458654  0.24760940  0.76052814     0.16600
H757        H  0.13540655  0.23508785  0.75759213     0.19100
H758        H  0.06211591  0.30936108  0.84336403     0.12500
C759        C  0.81758139  0.35899175  0.22613085     0.16400
C760        C  0.83085185  0.37557526  0.20941853    -0.32700
C761        C  0.82644564  0.40198270  0.21160461     0.20800
C762        C  0.80996749  0.41174224  0.23013723     0.02900
C763        C  0.79686968  0.39503167  0.24739164    -0.22400
C764        C  0.80078367  0.36826087  0.24466777     0.12100
S765        S  0.81800861  0.32644833  0.22326633    -0.06100
C766        C  0.79458809  0.32458207  0.24665011    -0.09500
C767        C  0.78761346  0.34839960  0.25692737    -0.26100
S768        S  0.80611121  0.44450962  0.22788399    -0.03300
C769        C  0.82661527  0.44470039  0.20148520    -0.16800
C770        C  0.83609914  0.42061769  0.19538408    -0.14800
H771        H  0.84315023  0.36805831  0.19437200     0.20600
H772        H  0.78335165  0.40245481  0.26136301     0.16600
H773        H  0.77214671  0.35118344  0.27059154     0.19100
H774        H  0.84862299  0.41669856  0.17914534     0.12500
C775        C  0.07741015  0.66243409  0.23955739     0.16400
C776        C  0.09669625  0.67109477  0.25676124    -0.32700
C777        C  0.12203002  0.66289912  0.25231567     0.20800
C778        C  0.12790103  0.64670939  0.23186729     0.02900
C779        C  0.10849515  0.63715358  0.21545037    -0.22400
C780        C  0.08330994  0.64560806  0.21963304     0.12100
S781        S  0.04597515  0.67241620  0.23941407    -0.06100
C782        C  0.04077936  0.65350068  0.21230746    -0.09500
C783        C  0.06245671  0.64026419  0.20425530    -0.26100
S784        S  0.16009610  0.64380590  0.22617755    -0.03300
C785        C  0.16589082  0.66466832  0.25159895    -0.16800
C786        C  0.14373780  0.67239916  0.26426751    -0.14800
H787        H  0.09244410  0.68474858  0.27187451     0.20600
H788        H  0.11307471  0.62498588  0.19896369     0.16600
H789        H  0.06320503  0.62783063  0.18729644     0.19100
H790        H  0.14342308  0.68728999  0.27883636     0.12500
C791        C  0.23337972  0.42606334  0.80927608     0.16400
C792        C  0.25260841  0.40898889  0.80124187    -0.32700
C793        C  0.24874719  0.38254168  0.80605258     0.20800
C794        C  0.22675336  0.37360394  0.81830529     0.02900
C795        C  0.20785645  0.39063543  0.82669245    -0.22400
C796        C  0.21168277  0.41692350  0.82187676     0.12100
S797        S  0.23330565  0.45869680  0.80398735    -0.06100
C798        C  0.20379046  0.45982968  0.81904449    -0.09500
C799        C  0.19487908  0.43612923  0.82772551    -0.26100
S800        S  0.22435975  0.34090705  0.82040170    -0.03300
C801        C  0.25343469  0.33896307  0.80480026    -0.16800
C802        C  0.26433012  0.36267073  0.79847146    -0.14800
H803        H  0.26949908  0.41592370  0.79112143     0.20600
H804        H  0.19053388  0.38361839  0.83597943     0.16600
H805        H  0.17661175  0.43296107  0.83723464     0.19100
H806        H  0.28188044  0.36517954  0.78751171     0.12500
C807        C  0.22273415  0.69810333  0.06902204     0.16400
C808        C  0.23670225  0.71170206  0.08810446    -0.32700
C809        C  0.23752964  0.70120825  0.11333605     0.20800
C810        C  0.22560185  0.67789038  0.11900862     0.02900
C811        C  0.21237023  0.66400941  0.09982394    -0.22400
C812        C  0.21083673  0.67486649  0.07495010     0.12100
S813        S  0.21670539  0.70878917  0.03806530    -0.06100
C814        C  0.19757707  0.68187645  0.03342566    -0.09500
C815        C  0.19650921  0.66546728  0.05467104    -0.26100
S816        S  0.22522653  0.67011313  0.15117075    -0.03300
C817        C  0.24085609  0.69877356  0.15734595    -0.16800
C818        C  0.24685684  0.71309998  0.13535128    -0.14800
H819        H  0.24526878  0.73031240  0.08385655     0.20600
H820        H  0.20231868  0.64628379  0.10449528     0.16600
H821        H  0.18512721  0.64795201  0.05556865     0.19100
H822        H  0.25507536  0.73233692  0.13570005     0.12500
C823        C  0.08267521  0.48431868  0.93218035     0.16400
C824        C  0.10310024  0.47551851  0.91717186    -0.32700
C825        C  0.11047380  0.49050362  0.89578479     0.20800
C826        C  0.09812491  0.51327676  0.88951536     0.02900
C827        C  0.07743455  0.52196022  0.90438903    -0.22400
C828        C  0.07006208  0.50694998  0.92585514     0.12100
S829        S  0.07107955  0.46888734  0.95895824    -0.06100
C830        C  0.04878471  0.49301796  0.96155046    -0.09500
C831        C  0.05046215  0.51204023  0.94269517    -0.26100
S832        S  0.11081291  0.52906675  0.86330296    -0.03300
C833        C  0.13291186  0.50463225  0.86082781    -0.16800
C834        C  0.13025884  0.48535050  0.87931048    -0.14800
H835        H  0.11294141  0.45784091  0.92205781     0.20600
H836        H  0.06767973  0.53969405  0.89959205     0.16600
H837        H  0.03774956  0.52837249  0.94116488     0.19100
H838        H  0.14255183  0.46868493  0.88099931     0.12500
C839        C  0.08478952  0.55851228  0.00655106     0.16400
C840        C  0.10834505  0.57114935  0.01061111    -0.32700
C841        C  0.11119404  0.59605027  0.00034037     0.20800
C842        C  0.09154851  0.60786667  0.98653879     0.02900
C843        C  0.06770920  0.59552029  0.98316011    -0.22400
C844        C  0.06482706  0.57063672  0.99349325     0.12100
S845        S  0.07810571  0.52761433  0.01592250    -0.06100
C846        C  0.04794814  0.53134461  0.00261672    -0.09500
C847        C  0.04345634  0.55519475  0.99149217    -0.26100
S848        S  0.09944445  0.63757002  0.97437661    -0.03300
C849        C  0.12930635  0.63421917  0.98855124    -0.16800
C850        C  0.13275870  0.61124835  0.00188698    -0.14800
H851        H  0.12392577  0.56181107  0.02090644     0.20600
H852        H  0.05224014  0.60471273  0.97254805     0.16600
H853        H  0.02571442  0.56062379  0.98190134     0.19100
H854        H  0.15026035  0.60586600  0.01195325     0.12500
C855        C  0.01680106  0.55024949  0.08287572     0.16400
C856        C  0.02402203  0.56169416  0.10644393    -0.32700
C857        C  0.00806547  0.58090370  0.11628584     0.20800
C858        C  0.98577386  0.58826417  0.10344453     0.02900
C859        C  0.97860035  0.57687464  0.07980051    -0.22400
C860        C  0.99471192  0.55786662  0.06980463     0.12100
S861        S  0.03331923  0.52628398  0.06796874    -0.06100
C862        C  0.01040812  0.52685648  0.04373665    -0.09500
C863        C  0.99104564  0.54458888  0.04715396    -0.26100
S864        S  0.96920334  0.61213632  0.11856595    -0.03300
C865        C  0.99285564  0.61252187  0.14216080    -0.16800
C866        C  0.01221857  0.59473067  0.13851500    -0.14800
H867        H  0.04134260  0.55594919  0.11661237     0.20600
H868        H  0.96130937  0.58265689  0.06958251     0.16600
H869        H  0.97495236  0.54723045  0.03397544     0.19100
H870        H  0.02872104  0.59234811  0.15120636     0.12500
C871        C  0.94785297  0.47853746  0.08097310     0.16400
C872        C  0.93648330  0.47147077  0.10464888    -0.32700
C873        C  0.91124954  0.47959394  0.10917974     0.20800
C874        C  0.89817739  0.49457962  0.09113791     0.02900
C875        C  0.90933416  0.50120996  0.06726795    -0.22400
C876        C  0.93432192  0.49260165  0.06252311     0.12100
S877        S  0.97848888  0.47117138  0.07206193    -0.06100
C878        C  0.97253192  0.48616593  0.04273667    -0.09500
C879        C  0.94830972  0.49679316  0.04038623    -0.26100
S880        S  0.86849309  0.50401816  0.10093366    -0.03300
C881        C  0.87332814  0.48696485  0.12935394    -0.16800
C882        C  0.89689418  0.47480384  0.13105487    -0.14800
H883        H  0.94689226  0.46023403  0.11895372     0.20600
H884        H  0.89902620  0.51267961  0.05306577     0.16600
H885        H  0.94147356  0.50722265  0.02346658     0.19100
H886        H  0.90347781  0.46383314  0.14771930     0.12500
C887        C  0.94998897  0.40974574  0.01021676     0.16400
C888        C  0.93795593  0.38730118  0.01914627    -0.32700
C889        C  0.91727554  0.37771305  0.00450174     0.20800
C890        C  0.90927182  0.38954839  0.98164134     0.02900
C891        C  0.92113491  0.41219675  0.97287152    -0.22400
C892        C  0.94145424  0.42212563  0.98786334     0.12100
S893        S  0.97539434  0.42433100  0.02522947    -0.06100
C894        C  0.97382239  0.44796109  0.00178879    -0.09500
C895        C  0.95499323  0.44424629  0.98300317    -0.26100
S896        S  0.88429893  0.37437575  0.96628657    -0.03300
C897        C  0.88431044  0.35232294  0.99131335    -0.16800
C898        C  0.90278805  0.35648580  0.01033131    -0.14800
H899        H  0.94432971  0.37781962  0.03681541     0.20600
H900        H  0.91471207  0.42173663  0.95525875     0.16600
H901        H  0.95146364  0.45705230  0.96673592     0.19100
H902        H  0.90557942  0.34449179  0.02737890     0.12500
C903        C  0.00808412  0.38122968  0.90738697     0.16400
C904        C  0.01461157  0.39029908  0.93223009    -0.32700
C905        C  0.01070432  0.41645775  0.93734731     0.20800
C906        C  0.00115016  0.43300377  0.91844404     0.02900
C907        C  0.99441339  0.42388689  0.89365212    -0.22400
C908        C  0.99782370  0.39759085  0.88869568     0.12100
S909        S  0.01166955  0.35019831  0.89729525    -0.06100
C910        C  0.99853453  0.35920499  0.86788799    -0.09500
C911        C  0.99196635  0.38492655  0.86600506    -0.26100
S912        S  0.99783016  0.46408416  0.92852648    -0.03300
C913        C  0.00882267  0.45447407  0.95864839    -0.16800
C914        C  0.01507954  0.42868310  0.96054552    -0.14800
H915        H  0.02223768  0.37748688  0.94698210     0.20600
H916        H  0.98662408  0.43667690  0.87895881     0.16600
H917        H  0.98386144  0.39392193  0.84880380     0.19100
H918        H  0.02206328  0.41939912  0.97807567     0.12500
C919        C  0.27119820  0.80902709  0.14344150     0.16400
C920        C  0.28881816  0.81974960  0.12566729    -0.32700
C921        C  0.28414273  0.81598255  0.09882744     0.20800
C922        C  0.26283474  0.80233205  0.09006876     0.02900
C923        C  0.24486871  0.79237067  0.10776434    -0.22400
C924        C  0.24956993  0.79604687  0.13450271     0.12100
S925        S  0.27503319  0.80791437  0.17676536    -0.06100
C926        C  0.24704517  0.78988422  0.17863719    -0.09500
C927        C  0.23547709  0.78569554  0.15445627    -0.26100
S928        S  0.26161330  0.79816464  0.05693264    -0.03300
C929        C  0.29003407  0.81528317  0.05455154    -0.16800
C930        C  0.29961701  0.82368791  0.07855176    -0.14800
H931        H  0.30592821  0.82967968  0.13245033     0.20600
H932        H  0.22838689  0.78136091  0.10102099     0.16600
H933        H  0.21876157  0.77351492  0.15131807     0.19100
H934        H  0.31734740  0.83442830  0.08111035     0.12500
C935        C  0.41912502  0.78194325  0.20907661     0.16400
C936        C  0.39973482  0.76409146  0.21473732    -0.32700
C937        C  0.37613063  0.77368224  0.22307386     0.20800
C938        C  0.37201304  0.79982344  0.22636758     0.02900
C939        C  0.39139192  0.81775410  0.22043136    -0.22400
C940        C  0.41486818  0.80818461  0.21140393     0.12100
S941        S  0.44885632  0.77412568  0.19799572    -0.06100
C942        C  0.45540334  0.80656535  0.19568936    -0.09500
C943        C  0.43560667  0.82246004  0.20341479    -0.26100
S944        S  0.34168155  0.80726484  0.23657350    -0.03300
C945        C  0.33451107  0.77487924  0.23544571    -0.16800
C946        C  0.35465513  0.75943359  0.22801019    -0.14800
H947        H  0.40274274  0.74360091  0.21228285     0.20600
H948        H  0.38816140  0.83824837  0.22227748     0.16600
H949        H  0.43631022  0.84330779  0.20298146     0.19100
H950        H  0.35351596  0.73869136  0.22575924     0.12500
C951        C  0.40847061  0.22776545  0.81921250     0.16400
C952        C  0.39028603  0.24598520  0.81103275    -0.32700
C953        C  0.36413147  0.23940057  0.81343602     0.20800
C954        C  0.35643369  0.21592480  0.82375147     0.02900
C955        C  0.37455562  0.19816684  0.83272230    -0.22400
C956        C  0.40060954  0.20455614  0.83000925     0.12100
S957        S  0.44110952  0.23058151  0.81556330    -0.06100
C958        C  0.44403226  0.20023415  0.82896226    -0.09500
C959        C  0.42084683  0.18889631  0.83584581    -0.26100
S960        S  0.32428689  0.20959972  0.82075968    -0.03300
C961        C  0.32098775  0.23891542  0.80558724    -0.16800
C962        C  0.34374584  0.25288123  0.80348833    -0.14800
H963        H  0.39622292  0.26388748  0.80199296     0.20600
H964        H  0.36862691  0.17954238  0.84018325     0.16600
H965        H  0.41881328  0.16973932  0.84400566     0.19100
H966        H  0.34567449  0.27066015  0.79261354     0.12500
C967        C  0.26591139  0.14014950  0.81475118     0.16400
C968        C  0.27718080  0.12196215  0.83151352    -0.32700
C969        C  0.27841593  0.09626482  0.82293917     0.20800
C970        C  0.26832833  0.08885540  0.79904330     0.02900
C971        C  0.25700744  0.10696716  0.78236774    -0.22400
C972        C  0.25631544  0.13268959  0.79067765     0.12100
S973        S  0.26488580  0.17277613  0.82012923    -0.06100
C974        C  0.25199376  0.17632160  0.78939291    -0.09500
C975        C  0.24835622  0.15328800  0.77616030    -0.26100
S976        S  0.27266896  0.05706024  0.79170352    -0.03300
C977        C  0.28891403  0.05370359  0.82083133    -0.16800
C978        C  0.29026143  0.07617114  0.83551260    -0.14800
H979        H  0.28547988  0.12774771  0.85000128     0.20600
H980        H  0.24986478  0.10141775  0.76331266     0.16600
H981        H  0.24178187  0.15189023  0.75615594     0.19100
H982        H  0.30008397  0.07791495  0.85407574     0.12500
C983        C  0.69723992  0.22450720  0.11621582     0.16400
C984        C  0.69733288  0.22772742  0.08906641    -0.32700
C985        C  0.68773832  0.20729168  0.07386681     0.20800
C986        C  0.67826147  0.18505536  0.08550507     0.02900
C987        C  0.67826913  0.18185256  0.11240741    -0.22400
C988        C  0.68806424  0.20193338  0.12739303     0.12100
S989        S  0.71034354  0.24556804  0.13799411    -0.06100
C990        C  0.70436018  0.22303217  0.16180274    -0.09500
C991        C  0.69189819  0.20105137  0.15356813    -0.26100
S992        S  0.66687683  0.16261203  0.06462671    -0.03300
C993        C  0.67482784  0.18299205  0.03942757    -0.16800
C994        C  0.68610405  0.20614231  0.04707095    -0.14800
H995        H  0.70504775  0.24506276  0.08023752     0.20600
H996        H  0.67137187  0.16417855  0.12127193     0.16600
H997        H  0.68816175  0.18431191  0.16556739     0.19100
H998        H  0.69191991  0.22143477  0.03397299     0.12500
C999        C  0.69983187  0.06960601  0.22227100     0.16400
C1000       C  0.70951523  0.08652262  0.24150883    -0.32700
C1001       C  0.70582898  0.11320860  0.23768746     0.20800
C1002       C  0.69337729  0.12242221  0.21568627     0.02900
C1003       C  0.68387137  0.10561493  0.19666301    -0.22400
C1004       C  0.68724754  0.07915881  0.20049571     0.12100
S1005       S  0.70160995  0.03657656  0.22282843    -0.06100
C1006       C  0.68489240  0.03586296  0.19360859    -0.09500
C1007       C  0.67870913  0.06007750  0.18413446    -0.26100
S1008       S  0.69157342  0.15517162  0.21361881    -0.03300
C1009       C  0.70774559  0.15706928  0.24266773    -0.16800
C1010       C  0.71404012  0.13311254  0.25346492    -0.14800
H1011       H  0.71942394  0.07925218  0.25856701     0.20600
H1012       H  0.67422691  0.11291603  0.17947222     0.16600
H1013       H  0.66821798  0.06361046  0.16622592     0.19100
H1014       H  0.72508451  0.13045299  0.27119199     0.12500
C1015       C  0.40438195  0.00968988  0.94750545     0.16400
C1016       C  0.38068660  0.01731058  0.93694280    -0.32700
C1017       C  0.37656946  0.01337371  0.91021346     0.20800
C1018       C  0.39516074  0.00214317  0.89480193     0.02900
C1019       C  0.41906675  0.99518612  0.90519435    -0.22400
C1020       C  0.42321469  0.99926969  0.93182597     0.12100
S1021       S  0.41308160  0.01254751  0.97950435    -0.06100
C1022       C  0.44265577  0.00044917  0.97135158    -0.09500
C1023       C  0.44529677  0.99404293  0.94539235    -0.26100
S1024       S  0.38571155  0.99665257  0.86348769    -0.03300
C1025       C  0.35655670  0.01003769  0.87103489    -0.16800
C1026       C  0.35443001  0.01845544  0.89648173    -0.14800
H1027       H  0.36603232  0.02564085  0.94905416     0.20600
H1028       H  0.43363295  0.98661355  0.89314281     0.16600
H1029       H  0.46269059  0.98665724  0.93686698     0.19100
H1030       H  0.33721147  0.02648532  0.90477772     0.12500
C1031       C  0.41281362  0.93097812  0.02346952     0.16400
C1032       C  0.39266306  0.91630806  0.03419286    -0.32700
C1033       C  0.38241263  0.89600042  0.01921354     0.20800
C1034       C  0.39197360  0.89049346  0.99475496     0.02900
C1035       C  0.41232236  0.90491419  0.98421132    -0.22400
C1036       C  0.42239729  0.92532759  0.99905345     0.12100
S1037       S  0.42732030  0.95690125  0.03807081    -0.06100
C1038       C  0.44654069  0.96014961  0.01101042    -0.09500
C1039       C  0.44175913  0.94195694  0.99181444    -0.26100
S1040       S  0.37641493  0.86582567  0.97919687    -0.03300
C1041       C  0.35668462  0.86269646  0.00587054    -0.16800
C1042       C  0.36224936  0.87998311  0.02580643    -0.14800
H1043       H  0.38507457  0.92076189  0.05319340     0.20600
H1044       H  0.41970597  0.90065944  0.96508015     0.16600
H1045       H  0.45195216  0.94097186  0.97356974     0.19100
H1046       H  0.35181331  0.88110311  0.04390728     0.12500
C1047       C  0.59451316  0.09088797  0.98330974     0.16400
C1048       C  0.58326098  0.06654935  0.97982916    -0.32700
C1049       C  0.55999600  0.06154663  0.99249117     0.20800
C1050       C  0.54795483  0.08019725  0.00723739     0.02900
C1051       C  0.55954552  0.10431408  0.01129900    -0.22400
C1052       C  0.58322371  0.10904330  0.99925129     0.12100
S1053       S  0.62287980  0.10060284  0.96984773    -0.06100
C1054       C  0.62001432  0.12900353  0.98669822    -0.09500
C1055       C  0.59800537  0.13085200  0.00159995    -0.26100
S1056       S  0.51879074  0.07096093  0.01923940    -0.03300
C1057       C  0.52354565  0.04132471  0.00519917    -0.16800
C1058       C  0.54635496  0.03894343  0.99181079    -0.14800
H1059       H  0.59230080  0.05211276  0.96790365     0.20600
H1060       H  0.55056074  0.11869532  0.02332619     0.16600
H1061       H  0.59329850  0.14712705  0.01374865     0.19100
H1062       H  0.55219426  0.02181263  0.98152100     0.12500
C1063       C  0.50223571  0.09619646  0.89968947     0.16400
C1064       C  0.51135437  0.07496803  0.91383441    -0.32700
C1065       C  0.49568795  0.06498229  0.93363415     0.20800
C1066       C  0.47226295  0.07592971  0.93952322     0.02900
C1067       C  0.46293230  0.09687878  0.92510525    -0.22400
C1068       C  0.47840607  0.10659477  0.90500813     0.12100
S1069       S  0.51843756  0.11142464  0.87512261    -0.06100
C1070       C  0.49262577  0.13177668  0.87163830    -0.09500
C1071       C  0.47270278  0.12683197  0.88885993    -0.26100
S1072       S  0.45688726  0.06179759  0.96520179    -0.03300
C1073       C  0.48195149  0.04034863  0.96760629    -0.16800
C1074       C  0.50106678  0.04428541  0.94928282    -0.14800
H1075       H  0.52985530  0.06664659  0.90965108     0.20600
H1076       H  0.44450439  0.10529285  0.92941845     0.16600
H1077       H  0.45505472  0.13767845  0.88974272     0.19100
H1078       H  0.51805994  0.03260945  0.94750576     0.12500
C1079       C  0.49284260  0.90764317  0.11818038     0.16400
C1080       C  0.48630613  0.93225309  0.10923070    -0.32700
C1081       C  0.49107545  0.93799585  0.08304201     0.20800
C1082       C  0.50175656  0.92001778  0.06645043     0.02900
C1083       C  0.50906905  0.89570978  0.07561207    -0.22400
C1084       C  0.50442750  0.89001644  0.10183836     0.12100
S1085       S  0.48659472  0.89616703  0.14864388    -0.06100
C1086       C  0.50029162  0.86760474  0.13937935    -0.09500
C1087       C  0.50923448  0.86710218  0.11410502    -0.26100
S1088       S  0.50439529  0.93008669  0.03495561    -0.03300
C1089       C  0.49160141  0.95900184  0.04446091    -0.16800
C1090       C  0.48552585  0.96062112  0.07056202    -0.14800
H1091       H  0.47737624  0.94608700  0.12194302     0.20600
H1092       H  0.51749331  0.88168200  0.06275839     0.16600
H1093       H  0.51775482  0.85051135  0.10492963     0.19100
H1094       H  0.47722544  0.97732579  0.07972260     0.12500
C1095       C  0.55877017  0.01119509  0.07791630     0.16400
C1096       C  0.57439757  0.02046267  0.09823674    -0.32700
C1097       C  0.59590515  0.00584603  0.10535727     0.20800
C1098       C  0.60147272  0.98291320  0.09289683     0.02900
C1099       C  0.58617035  0.97394735  0.07216036    -0.22400
C1100       C  0.56475981  0.98867285  0.06494339     0.12100
S1101       S  0.53132349  0.02559047  0.06712816    -0.06100
C1102       C  0.52820281  0.00146892  0.04431217    -0.09500
C1103       C  0.54742370  0.98311471  0.04545006    -0.26100
S1104       S  0.62730305  0.96708261  0.10565750    -0.03300
C1105       C  0.63094066  0.99179367  0.12780769    -0.16800
C1106       C  0.61298524  0.01125728  0.12515665    -0.14800
H1107       H  0.56978529  0.03810821  0.10829687     0.20600
H1108       H  0.59053394  0.95610140  0.06235930     0.16600
H1109       H  0.54867777  0.96667835  0.03264927     0.19100
H1110       H  0.61190914  0.02797129  0.13765088     0.12500
C1111       C  0.76962932  0.85813919  0.33004069     0.16400
C1112       C  0.78381922  0.87732650  0.34277042    -0.32700
C1113       C  0.78115357  0.90266430  0.33388087     0.20800
C1114       C  0.76467500  0.90892807  0.31357038     0.02900
C1115       C  0.74959795  0.88981402  0.30148665    -0.22400
C1116       C  0.75264798  0.86428315  0.31008346     0.12100
S1117       S  0.77422936  0.82592680  0.33450833    -0.06100
C1118       C  0.75277187  0.82057334  0.30953441    -0.09500
C1119       C  0.74249052  0.84267710  0.29857745    -0.26100
S1120       S  0.76682840  0.94044005  0.30376551    -0.03300
C1121       C  0.79027747  0.94496867  0.32723447    -0.16800
C1122       C  0.79551255  0.92324010  0.34199116    -0.14800
H1123       H  0.79763847  0.87249808  0.35784716     0.20600
H1124       H  0.73722522  0.89438472  0.28509588     0.16600
H1125       H  0.73044178  0.84292885  0.28129130     0.19100
H1126       H  0.81016027  0.92212779  0.35703018     0.12500
C1127       C  0.68781959  0.89606532  0.19641736     0.16400
C1128       C  0.68484889  0.86984950  0.20227416    -0.32700
C1129       C  0.70700177  0.85573185  0.20811642     0.20800
C1130       C  0.73117564  0.86708338  0.20792420     0.02900
C1131       C  0.73412999  0.89353515  0.20245953    -0.22400
C1132       C  0.71183975  0.90780456  0.19688929     0.12100
S1133       S  0.66327932  0.91599326  0.18787166    -0.06100
C1134       C  0.68533662  0.94074053  0.18540447    -0.09500
C1135       C  0.71049387  0.93369482  0.19094521    -0.26100
S1136       S  0.75552217  0.84634604  0.21586436    -0.03300
C1137       C  0.73277368  0.82234126  0.21994093    -0.16800
C1138       C  0.70777951  0.83025208  0.21513507    -0.14800
H1139       H  0.66602902  0.86081764  0.20226264     0.20600
H1140       H  0.75292295  0.90258902  0.20263477     0.16600
H1141       H  0.72690946  0.94655751  0.18981875     0.19100
H1142       H  0.69089255  0.81821554  0.21758832     0.12500
C1143       C  0.88444548  0.73263477  0.22135155     0.16400
C1144       C  0.91039385  0.72616678  0.22598628    -0.32700
C1145       C  0.92225418  0.70913813  0.20845332     0.20800
C1146       C  0.90892173  0.69977645  0.18697544     0.02900
C1147       C  0.88329494  0.70641218  0.18224713    -0.22400
C1148       C  0.87129901  0.72263207  0.20008507     0.12100
S1149       S  0.86531795  0.75002166  0.24186412    -0.06100
C1150       C  0.83923259  0.74261514  0.22217714    -0.09500
C1151       C  0.84560750  0.72831582  0.20041562    -0.26100
S1152       S  0.92554187  0.67846461  0.16867151    -0.03300
C1153       C  0.95095940  0.68137353  0.19022767    -0.16800
C1154       C  0.94660891  0.69866626  0.21041500    -0.14800
H1155       H  0.92047752  0.73312674  0.24312080     0.20600
H1156       H  0.87275235  0.69825053  0.16595227     0.16600
H1157       H  0.83170748  0.72046258  0.18673356     0.19100
H1158       H  0.96009641  0.70269551  0.22604354     0.12500
C1159       C  0.86960818  0.73947637  0.31108623     0.16400
C1160       C  0.89645529  0.74153825  0.31320826    -0.32700
C1161       C  0.90704399  0.76583429  0.31903666     0.20800
C1162       C  0.89155155  0.78701913  0.32316230     0.02900
C1163       C  0.86469826  0.78494863  0.32111260    -0.22400
C1164       C  0.85415284  0.76074946  0.31482123     0.12100
S1165       S  0.85327135  0.71242259  0.30137727    -0.06100
C1166       C  0.82532691  0.73006732  0.30171609    -0.09500
C1167       C  0.82871738  0.75538939  0.30980921    -0.26100
S1168       S  0.90811922  0.81478464  0.32997137    -0.03300
C1169       C  0.93630451  0.79782511  0.32681331    -0.16800
C1170       C  0.93274406  0.77196565  0.32085392    -0.14800
H1171       H  0.90859906  0.72509431  0.30968153     0.20600
H1172       H  0.85260624  0.80159508  0.32365676     0.16600
H1173       H  0.81372712  0.76966633  0.31009763     0.19100
H1174       H  0.94814179  0.75834911  0.31813852     0.12500
C1175       C  0.71648118  0.61622777  0.30982686     0.16400
C1176       C  0.70415154  0.59820329  0.32595004    -0.32700
C1177       C  0.70602214  0.57204283  0.31928648     0.20800
C1178       C  0.71988694  0.56412386  0.29783441     0.02900
C1179       C  0.73249104  0.58205231  0.28197617    -0.22400
C1180       C  0.73023877  0.60815786  0.28836352     0.12100
S1181       S  0.71467952  0.64905602  0.31294112    -0.06100
C1182       C  0.73220247  0.65165651  0.28478162    -0.09500
C1183       C  0.73941582  0.62838365  0.27410776    -0.26100
S1184       S  0.71895975  0.53171955  0.29234126    -0.03300
C1185       C  0.69956037  0.52868369  0.31919448    -0.16800
C1186       C  0.69434689  0.55174712  0.33167505    -0.14800
H1187       H  0.69295760  0.60432621  0.34245612     0.20600
H1188       H  0.74292046  0.57598933  0.26492294     0.16600
H1189       H  0.75010682  0.62637964  0.25627873     0.19100
H1190       H  0.68225387  0.55363667  0.34860748     0.12500
C1191       C  0.78055243  0.56961783  0.18600990     0.16400
C1192       C  0.76318500  0.58769659  0.19555576    -0.32700
C1193       C  0.76714838  0.61359259  0.18871503     0.20800
C1194       C  0.78726788  0.62125011  0.17285472     0.02900
C1195       C  0.80392094  0.60302878  0.16237976    -0.22400
C1196       C  0.80021493  0.57719708  0.16955886     0.12100
S1197       S  0.78108271  0.53770355  0.19446103    -0.06100
C1198       C  0.80797940  0.53457692  0.17542761    -0.09500
C1199       C  0.81575615  0.55715373  0.16320080    -0.26100
S1200       S  0.79161986  0.65390326  0.17086819    -0.03300
C1201       C  0.76599968  0.65710134  0.19147676    -0.16800
C1202       C  0.75448958  0.63414352  0.19881580    -0.14800
H1203       H  0.74812546  0.58205268  0.20891846     0.20600
H1204       H  0.82000799  0.60888938  0.15041966     0.16600
H1205       H  0.83249945  0.55902762  0.15091642     0.19100
H1206       H  0.73911386  0.63257122  0.21282869     0.12500
C1207       C  0.58566848  0.78442145  0.20406033     0.16400
C1208       C  0.60599558  0.77830972  0.22071637    -0.32700
C1209       C  0.63007683  0.77459393  0.20956320     0.20800
C1210       C  0.63377455  0.77544293  0.18289452     0.02900
C1211       C  0.61341982  0.78201377  0.16614811    -0.22400
C1212       C  0.58944593  0.78700762  0.17747214     0.12100
S1213       S  0.55537544  0.79104305  0.21420361    -0.06100
C1214       C  0.54791680  0.79873355  0.18252045    -0.09500
C1215       C  0.56777367  0.79559764  0.16498362    -0.26100
S1216       S  0.66443276  0.76801554  0.17353860    -0.03300
C1217       C  0.67223957  0.76520401  0.20604410    -0.16800
C1218       C  0.65212926  0.76954392  0.22282913    -0.14800
H1219       H  0.60328236  0.77700253  0.24157927     0.20600
H1220       H  0.61621863  0.78356341  0.14533724     0.16600
H1221       H  0.56656767  0.80000614  0.14440599     0.19100
H1222       H  0.65336420  0.76803006  0.24383510     0.12500
C1223       C  0.61991907  0.71212744  0.30433304     0.16400
C1224       C  0.59988000  0.70478533  0.32108866    -0.32700
C1225       C  0.57558716  0.69944803  0.30996063     0.20800
C1226       C  0.57110448  0.70237187  0.28350794     0.02900
C1227       C  0.59109403  0.70969863  0.26679814    -0.22400
C1228       C  0.61558483  0.71388619  0.27776718     0.12100
S1229       S  0.65133323  0.71777108  0.31348255    -0.06100
C1230       C  0.65881499  0.72135266  0.28103676    -0.09500
C1231       C  0.63777257  0.71876920  0.26439700    -0.26100
S1232       S  0.54055599  0.69417547  0.27370704    -0.03300
C1233       C  0.53394428  0.68558743  0.30538798    -0.16800
C1234       C  0.55439578  0.68968423  0.32254790    -0.14800
H1235       H  0.60329720  0.70241182  0.34176045     0.20600
H1236       H  0.58793365  0.71112246  0.24599764     0.16600
H1237       H  0.63875622  0.71988143  0.24338398     0.19100
H1238       H  0.55404895  0.68489013  0.34306674     0.12500
C1239       C  0.86977680  0.29352081  0.75686153     0.16400
C1240       C  0.89684095  0.29406283  0.75574924    -0.32700
C1241       C  0.91043863  0.30312939  0.77774043     0.20800
C1242       C  0.89747160  0.31176658  0.79949169     0.02900
C1243       C  0.87056734  0.31113445  0.80061611    -0.22400
C1244       C  0.85707292  0.30161081  0.77895369     0.12100
S1245       S  0.84974693  0.28088111  0.73351542    -0.06100
C1246       C  0.82420014  0.28522963  0.75433263    -0.09500
C1247       C  0.83103388  0.29720823  0.77748258    -0.26100
S1248       S  0.91693404  0.32227861  0.82406943    -0.03300
C1249       C  0.94317331  0.31470373  0.80529833    -0.16800
C1250       C  0.93682160  0.30448881  0.78105260    -0.14800
H1251       H  0.90684169  0.28705309  0.73880249     0.20600
H1252       H  0.86058501  0.31719195  0.81796169     0.16600
H1253       H  0.81790298  0.30080448  0.79324008     0.19100
H1254       H  0.95065442  0.29871420  0.76659724     0.12500
C1255       C  0.88036767  0.18285077  0.70910174     0.16400
C1256       C  0.89948497  0.17155626  0.69405533    -0.32700
C1257       C  0.92418486  0.18237639  0.69517994     0.20800
C1258       C  0.92995983  0.20331330  0.71088540     0.02900
C1259       C  0.91095929  0.21407186  0.72683434    -0.22400
C1260       C  0.88601602  0.20335788  0.72547402     0.12100
S1261       S  0.84853267  0.17490599  0.70715136    -0.06100
C1262       C  0.84260292  0.19908853  0.72902420    -0.09500
C1263       C  0.86436425  0.21234672  0.73754331    -0.26100
S1264       S  0.96072759  0.21494329  0.70708700    -0.03300
C1265       C  0.96555971  0.19135494  0.68399841    -0.16800
C1266       C  0.94445229  0.17529573  0.68013800    -0.14800
H1267       H  0.89500038  0.15578737  0.68099483     0.20600
H1268       H  0.91511011  0.23072121  0.73883894     0.16600
H1269       H  0.86410511  0.22879130  0.75043340     0.19100
H1270       H  0.94354117  0.15975064  0.66613044     0.12500
C1271       C  0.71869709  0.16955628  0.85810206     0.16400
C1272       C  0.70075000  0.15962000  0.87571674    -0.32700
C1273       C  0.70162312  0.16870367  0.90138230     0.20800
C1274       C  0.71960311  0.18684383  0.90942924     0.02900
C1275       C  0.73792223  0.19658303  0.89179047    -0.22400
C1276       C  0.73706235  0.18743351  0.86593654     0.12100
S1277       S  0.71882204  0.16284278  0.82559883    -0.06100
C1278       C  0.74401807  0.18425437  0.82211792    -0.09500
C1279       C  0.75207253  0.19551803  0.84539695    -0.26100
S1280       S  0.71656510  0.19564623  0.94154225    -0.03300
C1281       C  0.69087433  0.17450978  0.94397857    -0.16800
C1282       C  0.68528252  0.16162419  0.92092311    -0.14800
H1283       H  0.68627172  0.14582982  0.86951043     0.20600
H1284       H  0.75187279  0.21099265  0.89779626     0.16600
H1285       H  0.76681086  0.21024370  0.84688543     0.19100
H1286       H  0.66988489  0.14768783  0.91846738     0.12500
C1287       C  0.77383785  0.27064882  0.87823648     0.16400
C1288       C  0.77472637  0.27244509  0.90550821    -0.32700
C1289       C  0.79846825  0.27872077  0.91715750     0.20800
C1290       C  0.82021486  0.28296377  0.90222948     0.02900
C1291       C  0.81945734  0.28051693  0.87519075    -0.22400
C1292       C  0.79584238  0.27433719  0.86364225     0.12100
S1293       S  0.74716357  0.26315080  0.86005541    -0.06100
C1294       C  0.76617764  0.26437582  0.83266323    -0.09500
C1295       C  0.79162103  0.27062126  0.83770176    -0.26100
S1296       S  0.84658281  0.29265997  0.91930986    -0.03300
C1297       C  0.82834229  0.29099091  0.94706083    -0.16800
C1298       C  0.80317422  0.28284221  0.94318006    -0.14800
H1299       H  0.75765820  0.26937623  0.91707682     0.20600
H1300       H  0.83649005  0.28373105  0.86357824     0.16600
H1301       H  0.80672683  0.27075269  0.82338619     0.19100
H1302       H  0.78878396  0.28160566  0.95826095     0.12500
C1303       C  0.61503744  0.18706583  0.76598908     0.16400
C1304       C  0.59791805  0.17160063  0.78023174    -0.32700
C1305       C  0.57442702  0.18242443  0.78757644     0.20800
C1306       C  0.56800801  0.20736149  0.78056004     0.02900
C1307       C  0.58502373  0.22273767  0.76603183    -0.22400
C1308       C  0.60874096  0.21207178  0.75907369     0.12100
S1309       S  0.64554379  0.17844578  0.75793114    -0.06100
C1310       C  0.65018508  0.20897754  0.74542253    -0.09500
C1311       C  0.62872081  0.22464126  0.74691671    -0.26100
S1312       S  0.53872526  0.21701005  0.79172385    -0.03300
C1313       C  0.53515703  0.18722622  0.80628304    -0.16800
C1314       C  0.55575086  0.17082944  0.80242666    -0.14800
H1315       H  0.60303642  0.15225037  0.78605010     0.20600
H1316       H  0.58022849  0.24235647  0.76091103     0.16600
H1317       H  0.62841748  0.24476737  0.74135791     0.19100
H1318       H  0.55698175  0.15142165  0.81004287     0.12500
C1319       C  0.63741577  0.32730194  0.75137682     0.16400
C1320       C  0.62086304  0.34416098  0.73832901    -0.32700
C1321       C  0.59445959  0.33889174  0.73935786     0.20800
C1322       C  0.58478015  0.31833189  0.75357651     0.02900
C1323       C  0.60131931  0.30200369  0.76748644    -0.22400
C1324       C  0.62786401  0.30671218  0.76564398     0.12100
S1325       S  0.66993880  0.32732357  0.74773847    -0.06100
C1326       C  0.67083250  0.29881102  0.76494785    -0.09500
C1327       C  0.64703210  0.29062199  0.77402372    -0.26100
S1328       S  0.55245583  0.31341656  0.74963279    -0.03300
C1329       C  0.55218126  0.33893299  0.72806532    -0.16800
C1330       C  0.57584689  0.35094979  0.72499695    -0.14800
H1331       H  0.62834885  0.35957171  0.72627541     0.20600
H1332       H  0.59395411  0.28536138  0.77780215     0.16600
H1333       H  0.64351629  0.27222662  0.78336789     0.19100
H1334       H  0.57961638  0.36664421  0.71160957     0.12500
C1335       C  0.74079464  0.27778231  0.61282401     0.16400
C1336       C  0.73626589  0.27516068  0.58593077    -0.32700
C1337       C  0.71923552  0.29253710  0.57398593     0.20800
C1338       C  0.70759769  0.31183582  0.58820376     0.02900
C1339       C  0.71227340  0.31458229  0.61493912    -0.22400
C1340       C  0.72898009  0.29705756  0.62689983     0.12100
S1341       S  0.75891557  0.25735892  0.63147870    -0.06100
C1342       C  0.75013331  0.27474643  0.65857559    -0.09500
C1343       C  0.73439311  0.29553881  0.65302585    -0.26100
S1344       S  0.68704261  0.33051507  0.57064590    -0.03300
C1345       C  0.69387834  0.31215556  0.54366752    -0.16800
C1346       C  0.71141921  0.29259955  0.54830363    -0.14800
H1347       H  0.74506902  0.25982338  0.57496304     0.20600
H1348       H  0.70276641  0.32936289  0.62607818     0.16600
H1349       H  0.72602424  0.30796434  0.66754396     0.19100
H1350       H  0.71785174  0.27902537  0.53381494     0.12500
C1351       C  0.73888677  0.18343509  0.62659059     0.16400
C1352       C  0.74151244  0.18606485  0.59945836    -0.32700
C1353       C  0.76322942  0.17513580  0.58783256     0.20800
C1354       C  0.78087613  0.16145303  0.60261017     0.02900
C1355       C  0.77806129  0.15853101  0.62954206    -0.22400
C1356       C  0.75692622  0.17017254  0.64124213     0.12100
S1357       S  0.71663794  0.19902224  0.64485699    -0.06100
C1358       C  0.73273702  0.18894075  0.67259478    -0.09500
C1359       C  0.75323030  0.17280710  0.66754309    -0.26100
S1360       S  0.80630449  0.15033991  0.58558701    -0.03300
C1361       C  0.79357351  0.16451655  0.55801148    -0.16800
C1362       C  0.77046866  0.17710618  0.56206988    -0.14800
H1363       H  0.72798750  0.19730772  0.58816672     0.20600
H1364       H  0.79247251  0.14869574  0.64107056     0.16600
H1365       H  0.76677827  0.16617431  0.68213654     0.19100
H1366       H  0.75970690  0.18719368  0.54715864     0.12500
C1367       C  0.30625138  0.77778116  0.87073923     0.16400
C1368       C  0.31637515  0.79452395  0.88962558    -0.32700
C1369       C  0.30803499  0.79167640  0.91539502     0.20800
C1370       C  0.29037530  0.77289554  0.92238565     0.02900
C1371       C  0.28035373  0.75575329  0.90339437    -0.22400
C1372       C  0.28874292  0.75867999  0.87736271     0.12100
S1373       S  0.31289246  0.77967748  0.83822158    -0.06100
C1374       C  0.29206826  0.75427322  0.83293547    -0.09500
C1375       C  0.28069580  0.74489009  0.85568529    -0.26100
S1376       S  0.28270031  0.77354835  0.95505950    -0.03300
C1377       C  0.30370189  0.79932968  0.95913688    -0.16800
C1378       C  0.31564568  0.80662560  0.93609171    -0.14800
H1379       H  0.32994141  0.80952180  0.88434829     0.20600
H1380       H  0.26644530  0.74106320  0.90858174     0.16600
H1381       H  0.26632531  0.72973098  0.85615186     0.19100
H1382       H  0.32937726  0.82230553  0.93444039     0.12500
C1383       C  0.18352147  0.73097822  0.85707327     0.16400
C1384       C  0.16989838  0.71398116  0.87324525    -0.32700
C1385       C  0.17516855  0.71483386  0.90005102     0.20800
C1386       C  0.19297829  0.73209686  0.91030564     0.02900
C1387       C  0.20613183  0.74950716  0.89422113    -0.22400
C1388       C  0.20105573  0.74847125  0.86741122     0.12100
S1389       S  0.18280611  0.73023568  0.82386641    -0.06100
C1390       C  0.20643175  0.75369189  0.82388145    -0.09500
C1391       C  0.21385961  0.76193979  0.84846737    -0.26100
S1392       S  0.19811599  0.72884425  0.94295994    -0.03300
C1393       C  0.17601227  0.70392533  0.94295102    -0.16800
C1394       C  0.16521188  0.69872815  0.91873213    -0.14800
H1395       H  0.15660481  0.69990487  0.86515160     0.20600
H1396       H  0.22045128  0.76260576  0.90214599     0.16600
H1397       H  0.22969904  0.77506395  0.85230667     0.19100
H1398       H  0.15147473  0.68340337  0.91482050     0.12500
C1399       C  0.18864842  0.87880036  0.71863151     0.16400
C1400       C  0.17508543  0.89643257  0.70330409    -0.32700
C1401       C  0.18118235  0.92261820  0.70609142     0.20800
C1402       C  0.19995411  0.93113592  0.72333608     0.02900
C1403       C  0.21318838  0.91346645  0.73918306    -0.22400
C1404       C  0.20698705  0.88714342  0.73646307     0.12100
S1405       S  0.18625779  0.84610225  0.71565768    -0.06100
C1406       C  0.21002848  0.84341704  0.73894714    -0.09500
C1407       C  0.21886033  0.86686008  0.74866744    -0.26100
S1408       S  0.20515709  0.96386066  0.72244582    -0.03300
C1409       C  0.18148064  0.96591048  0.69884933    -0.16800
C1410       C  0.17052159  0.94233699  0.69224103    -0.14800
H1411       H  0.16089451  0.88995738  0.68919310     0.20600
H1412       H  0.22806788  0.91986038  0.75256864     0.16600
H1413       H  0.23480302  0.86897499  0.76217676     0.19100
H1414       H  0.15562623  0.93962232  0.67764183     0.12500
C1415       C  0.29033294  0.89308462  0.75095163     0.16400
C1416       C  0.28712061  0.91982827  0.75412153    -0.32700
C1417       C  0.29572285  0.93095358  0.77763329     0.20800
C1418       C  0.30705126  0.91598713  0.79686344     0.02900
C1419       C  0.30994593  0.88941246  0.79382062    -0.22400
C1420       C  0.30134241  0.87835700  0.77053496     0.12100
S1421       S  0.28081948  0.87548776  0.72437032    -0.06100
C1422       C  0.29133387  0.84806128  0.74022329    -0.09500
C1423       C  0.30196967  0.85267434  0.76453181    -0.26100
S1424       S  0.31738755  0.93266206  0.82338778    -0.03300
C1425       C  0.30643506  0.96043765  0.80878806    -0.16800
C1426       C  0.29499056  0.95664324  0.78453186    -0.14800
H1427       H  0.27832645  0.93139458  0.73899285     0.20600
H1428       H  0.31864580  0.87781523  0.80899724     0.16600
H1429       H  0.30887063  0.83784987  0.77763741     0.19100
H1430       H  0.28743628  0.97184916  0.77231167     0.12500
C1431       C  0.31464373  0.75328963  0.61963020     0.16400
C1432       C  0.31504877  0.75275783  0.59232648    -0.32700
C1433       C  0.33113299  0.73482996  0.58035933     0.20800
C1434       C  0.34687659  0.71887647  0.59500393     0.02900
C1435       C  0.34679833  0.71971071  0.62232224    -0.22400
C1436       C  0.32995763  0.73694954  0.63429690     0.12100
S1437       S  0.29336001  0.77050594  0.63747752    -0.06100
C1438       C  0.30459804  0.75515120  0.66500356    -0.09500
C1439       C  0.32433835  0.73801611  0.66042254    -0.26100
S1440       S  0.36342404  0.69707526  0.57705820    -0.03300
C1441       C  0.34834239  0.70886426  0.54950434    -0.16800
C1442       C  0.33195521  0.72926401  0.55419792    -0.14800
H1443       H  0.30221375  0.76471376  0.58093681     0.20600
H1444       H  0.35824501  0.70645204  0.63371700     0.16600
H1445       H  0.33251346  0.72542021  0.67497288     0.19100
H1446       H  0.32026924  0.73861935  0.53949347     0.12500
C1447       C  0.19033132  0.79446787  0.61782811     0.16400
C1448       C  0.17826175  0.81008289  0.59933401    -0.32700
C1449       C  0.18633688  0.80807979  0.57347377     0.20800
C1450       C  0.20529762  0.79107439  0.56602836     0.02900
C1451       C  0.21725239  0.77521018  0.58453370    -0.22400
C1452       C  0.20938207  0.77745296  0.61053190     0.12100
S1453       S  0.18526715  0.79616630  0.65060838    -0.06100
C1454       C  0.20906742  0.77376029  0.65448618    -0.09500
C1455       C  0.22011087  0.76541562  0.63158241    -0.26100
S1456       S  0.21260753  0.79235630  0.53354596    -0.03300
C1457       C  0.18996639  0.81621251  0.53019631    -0.16800
C1458       C  0.17757072  0.82247129  0.55312927    -0.14800
H1459       H  0.16376606  0.82379981  0.60497061     0.20600
H1460       H  0.23248052  0.76224378  0.57906807     0.16600
H1461       H  0.23636168  0.75254912  0.63059245     0.19100
H1462       H  0.16288159  0.83701100  0.55493234     0.12500
C1463       C  0.32528170  0.64753421  0.71312974     0.16400
C1464       C  0.33680923  0.62863138  0.69769057    -0.32700
C1465       C  0.33258518  0.60269085  0.70436848     0.20800
C1466       C  0.31755956  0.59581282  0.72546665     0.02900
C1467       C  0.30643650  0.61473358  0.74119144    -0.22400
C1468       C  0.31071870  0.64068376  0.73454278     0.12100
S1469       S  0.32501412  0.67980113  0.70622978    -0.06100
C1470       C  0.30553457  0.68430757  0.73278502    -0.09500
C1471       C  0.29968431  0.66168755  0.74602456    -0.26100
S1472       S  0.31339997  0.56326587  0.72922846    -0.03300
C1473       C  0.33235833  0.55882549  0.70222694    -0.16800
C1474       C  0.34128150  0.58158711  0.69112368    -0.14800
H1475       H  0.34783824  0.63387979  0.68066778     0.20600
H1476       H  0.29430500  0.60946005  0.75740995     0.16600
H1477       H  0.28590916  0.66038198  0.76167921     0.19100
H1478       H  0.35303094  0.58267382  0.67384252     0.12500
C1479       C  0.18566837  0.63496735  0.76733966     0.16400
C1480       C  0.17006938  0.61650064  0.77958248    -0.32700
C1481       C  0.17947419  0.59126736  0.78155293     0.20800
C1482       C  0.20288653  0.58446332  0.77095950     0.02900
C1483       C  0.21822086  0.60276110  0.75828228    -0.22400
C1484       C  0.20927478  0.62813195  0.75719356     0.12100
S1485       S  0.17948277  0.66733011  0.76602292    -0.06100
C1486       C  0.20929409  0.67152407  0.75238338    -0.09500
C1487       C  0.22284329  0.64902969  0.74857294    -0.26100
S1488       S  0.21175706  0.55340595  0.77697206    -0.03300
C1489       C  0.18398497  0.54965158  0.79463752    -0.16800
C1490       C  0.16847711  0.57130887  0.79507205    -0.14800
H1491       H  0.15203974  0.62184268  0.78837498     0.20600
H1492       H  0.23692707  0.59774102  0.75080453     0.16600
H1493       H  0.24224616  0.64821268  0.74116695     0.19100
H1494       H  0.15058569  0.57271154  0.80558509     0.12500
loop_ 
_geom_bond_atom_site_label_1 
_geom_bond_atom_site_label_2 
_geom_bond_distance 
_geom_bond_site_symmetry_2 
_ccdc_geom_bond_type 
O1            C9   1.269       .  A
O1          Co21   1.996       .  S
O2           C10   1.273       .  A
O2          Co22   1.920       .  S
O3           C11   1.267       .  A
O3          Co23   2.006       .  S
O4           C12   1.295       .  A
O4          Co24   2.055       .  S
O5           C11   1.264       .  A
O5          Co22   1.993       .  S
O6           C12   1.274       .  A
O6          Co21   1.934       .  S
O7           C10   1.296       .  A
O7          Co24   2.052       .  S
O8            C9   1.267       .  A
O8          Co23   2.001       .  S
C9         C1470   1.470       .  S
C10        C1422   1.477       .  S
C11        C1438   1.468       .  S
C12        C1374   1.491       .  S
O13          C26   1.244       .  A
O13         Co21   1.962       .  S
O14          C27   1.268       .  A
O14         Co22   1.995       .  S
O15          C28   1.269       .  A
O15         Co23   1.995       .  S
O16          C29   1.253       .  A
O16         Co24   2.001       .  S
O17          C29   1.246       .  A
O17         Co22   1.974       .  S
O18          C28   1.268       .  A
O18         Co21   1.996       .  S
O19          C26   1.256       .  A
O19         Co24   2.005       .  S
O20          C27   1.269       .  A
O20         Co23   1.989       .  S
Co21         O25   1.953       .  S
Co22         O25   1.951       .  S
Co23         O25   2.089       .  S
Co24         O25   2.265       .  S
C26        C1390   1.469       .  S
C27        C1454   1.457       .  S
C28        C1486   1.463       .  S
C29        C1406   1.473       .  S
O30          C38   1.280       .  A
O30         Co50   2.020       .  S
O31          C39   1.253       .  A
O31         Co51   2.023       .  S
O32          C40   1.283       .  A
O32         Co52   1.978       .  S
O33          C41   1.246       .  A
O33         Co53   1.964       .  S
O34          C40   1.284       .  A
O34         Co51   1.996       .  S
O35          C41   1.259       .  A
O35         Co50   2.027       .  S
O36          C39   1.246       .  A
O36         Co53   1.965       .  S
O37          C38   1.277       .  A
O37         Co52   1.976       .  S
C38        C1358   1.478       .  S
C39        C1278   1.482       .  S
C40        C1262   1.470       .  S
C41        C1310   1.478       .  S
O42          C55   1.271       .  A
O42         Co50   1.960       .  S
O43          C56   1.261       .  A
O43         Co51   1.989       .  S
O44          C57   1.262       .  A
O44         Co52   2.014       .  S
O45          C58   1.277       .  A
O45         Co53   2.017       .  S
O46          C58   1.296       .  A
O46         Co51   2.039       .  S
O47          C57   1.259       .  A
O47         Co50   1.976       .  S
O48          C55   1.284       .  A
O48         Co53   2.039       .  S
O49          C56   1.259       .  A
O49         Co52   2.050       .  S
Co50         O54   2.053       .  S
Co51         O54   2.042       .  S
Co52         O54   2.080       .  S
Co53         O54   2.027       .  S
C55        C1326   1.474       .  S
C56        C1246   1.480       .  S
C57        C1342   1.480       .  S
C58        C1294   1.473       .  S
O59          C67   1.275       .  A
O59         Co79   1.966       .  S
O60          C68   1.265       .  A
O60         Co80   2.013       .  S
O61          C69   1.271       .  A
O61         Co81   2.004       .  S
O62          C70   1.277       .  A
O62         Co82   1.993       .  S
O63          C69   1.260       .  A
O63         Co80   2.017       .  S
O64          C70   1.276       .  A
O64         Co79   1.992       .  S
O65          C68   1.259       .  A
O65         Co82   1.983       .  S
O66          C67   1.310       .  A
O66         Co81   2.091       .  S
C67        C1217   1.464       .  S
C68        C1150   1.481       .  S
C69        C1137   1.479       .  S
C70        C1201   1.458       .  S
O71          C84   1.268       .  A
O71         Co79   2.002       .  S
O72          C85   1.287       .  A
O72         Co80   1.961       .  S
O73          C86   1.269       .  A
O73         Co81   2.006       .  S
O74          C87   1.283       .  A
O74         Co82   1.899       .  S
O75          C87   1.304       .  A
O75         Co80   2.076       .  S
O76          C86   1.265       .  A
O76         Co79   1.996       .  S
O77          C84   1.265       .  A
O77         Co82   1.994       .  S
O78          C85   1.292       .  A
O78         Co81   1.992       .  S
Co79         O83   2.036       .  S
Co80         O83   2.075       .  S
Co81         O83   1.978       .  S
Co82         O83   1.876       .  S
C84        C1182   1.466       .  S
C85        C1118   1.460       .  S
C86        C1230   1.483       .  S
C87        C1166   1.478       .  S
C88        C1073   1.496       .  S
C88          C89   1.416   1_556  A
C88          C93   1.419       .  A
C89        C1057   1.479       .  S
C89          C90   1.414       .  A
C90        C1102   1.491       .  S
C90          C91   1.416   1_545  A
C91        C1089   1.477       .  S
C91          C92   1.417       .  A
C92        C1038   1.493       .  S
C92          C93   1.418   1_564  A
C93        C1022   1.478       .  S
C94        C1006   1.485       .  S
C94          N95   1.365   1_545  A
C94          N99   1.364       .  A
N95          C96   1.364       .  A
C96        C1134   1.476       .  S
C96          N97   1.357       .  A
N97          C98   1.355       .  A
C98        C1105   1.478       .  S
C98          N99   1.360   1_565  A
C100        C993   1.473       .  S
C100        N101   1.355       .  A
C100        N105   1.369   1_554  A
N101        C102   1.347   1_554  A
C102       C1054   1.467       .  S
C102        N103   1.352       .  A
N103        C104   1.362       .  A
C104       C1281   1.487       .  S
C104        N105   1.371       .  A
C106        C977   1.481       .  S
C106        N107   1.363       .  A
C106        N111   1.368       .  A
N107        C108   1.357       .  A
C108       C1025   1.467       .  S
C108        N109   1.351   1_545  A
N109        C110   1.355       .  A
C110       C1425   1.479       .  S
C110        N111   1.364   1_565  A
C112       C1313   1.482       .  S
C112        N113   1.364       .  A
C112        N117   1.364       .  A
N113        C114   1.361       .  A
C114       C1070   1.479       .  S
C114        N115   1.355       .  A
N115        C116   1.356       .  A
C116        C958   1.477       .  S
C116        N117   1.361       .  A
C118        C942   1.466       .  S
C118        N119   1.357       .  A
C118        N123   1.357       .  A
N119        C120   1.357       .  A
C120       C1086   1.463       .  S
C120        N121   1.357       .  A
N121        C122   1.358       .  A
C122       C1214   1.464       .  S
C122        N123   1.358       .  A
C124        C929   1.493       .  S
C124        N125   1.374       .  A
C124        N129   1.363       .  A
N125        C126   1.371   1_554  A
C126       C1377   1.500       .  S
C126        N127   1.360       .  A
N127        C128   1.356   1_556  A
C128       C1041   1.483       .  S
C128        N129   1.358       .  A
C130        C830   1.479       .  S
C130        C131   1.411       .  A
C130        C135   1.412   1_556  A
C131        C913   1.480       .  S
C131        C132   1.413   1_456  A
C132        C894   1.477       .  S
C132        C133   1.411       .  A
C133        C878   1.484       .  S
C133        C134   1.412   1_655  A
C134        C862   1.474       .  S
C134        C135   1.412       .  A
C135        C846   1.479       .  S
C136       C1393   1.478       .  S
C136        N137   1.361       .  A
C136        N141   1.364       .  A
N137        C138   1.357   1_556  A
C138        C814   1.474       .  S
C138        N139   1.356       .  A
N139        C140   1.356   1_554  A
C140        C849   1.472       .  S
C140        N141   1.361       .  A
C142       C1489   1.475       .  S
C142        N143   1.364       .  A
C142        N147   1.360       .  A
N143        C144   1.361       .  A
C144        C798   1.477       .  S
C144        N145   1.357       .  A
N145        C146   1.355       .  A
C146        C833   1.472       .  S
C146        N147   1.356       .  A
C148       C1153   1.487       .  S
C148        N149   1.360       .  A
C148        N153   1.372       .  A
N149        C150   1.352       .  A
C150        C865   1.470       .  S
C150        N151   1.349   1_655  A
N151        C152   1.355       .  A
C152        C782   1.483       .  S
C152        N153   1.371   1_455  A
C154       C1198   1.474       .  S
C154        N155   1.354       .  A
C154        N159   1.362       .  A
N155        C156   1.351       .  A
C156        C881   1.473       .  S
C156        N157   1.360       .  A
N157        C158   1.367       .  A
C158        C769   1.485       .  S
C158        N159   1.364       .  A
C160        C753   1.487       .  S
C160        N161   1.358       .  A
C160        N165   1.370   1_455  A
N161        C162   1.350   1_455  A
C162        C910   1.464       .  S
C162        N163   1.352       .  A
N163        C164   1.360       .  A
C164       C1249   1.484       .  S
C164        N165   1.372       .  A
C166        C737   1.466       .  S
C166        N167   1.363   1_554  A
C166        N171   1.355       .  A
N167        C168   1.363       .  A
C168       C1297   1.467       .  S
C168        N169   1.357       .  A
N169        C170   1.351       .  A
C170        C897   1.461       .  S
C170        N171   1.350   1_556  A
C172        C718   1.479       .  S
C172        C173   1.412       .  A
C172        C177   1.414       .  A
C173        C702   1.481       .  S
C173        C174   1.414       .  A
C174        C686   1.483       .  S
C174        C175   1.410       .  A
C175        C673   1.485       .  S
C175        C176   1.416       .  A
C176        C638   1.474       .  S
C176        C177   1.419       .  A
C177        C654   1.491       .  S
C178       C1329   1.477       .  S
C178        N179   1.359       .  A
C178        N183   1.360       .  A
N179        C180   1.356       .  A
C180        C721   1.470       .  S
C180        N181   1.359       .  A
N181        C182   1.359       .  A
C182        C622   1.479       .  S
C182        N183   1.361       .  A
C184        C606   1.475       .  S
C184        N185   1.358       .  A
C184        N189   1.366       .  A
N185        C186   1.353       .  A
C186        C641   1.465       .  S
C186        N187   1.354       .  A
N187        C188   1.356       .  A
C188       C1441   1.480       .  S
C188        N189   1.366       .  A
C190       C1185   1.474       .  S
C190        N191   1.357       .  A
C190        N195   1.359       .  A
N191        C192   1.355       .  A
C192        C689   1.465       .  S
C192        N193   1.359       .  A
N193        C194   1.363       .  A
C194        C590   1.477       .  S
C194        N195   1.359       .  A
C196        C574   1.491       .  S
C196        N197   1.368       .  A
C196        N201   1.361       .  A
N197        C198   1.368       .  A
C198       C1233   1.485       .  S
C198        N199   1.359       .  A
N199        C200   1.357       .  A
C200        C670   1.478       .  S
C200        N201   1.358       .  A
C202       C1473   1.481       .  S
C202        N203   1.364       .  A
C202        N207   1.361       .  A
N203        C204   1.362       .  A
C204        C558   1.480       .  S
C204        N205   1.359       .  A
N205        C206   1.355       .  A
C206        C657   1.477       .  S
C206        N207   1.358       .  A
C208       C1345   1.478       .  S
C208        N209   1.365       .  A
C208        N213   1.358       .  A
N209        C210   1.364       .  A
C210        C545   1.472       .  S
C210        N211   1.357       .  A
N211        C212   1.351       .  A
C212        C705   1.468       .  S
C212        N213   1.354       .  A
C214        C462   1.474   1_545  S
C214        C215   1.411   1_545  A
C214        C219   1.412       .  A
C215        C449   1.486       .  S
C215        C216   1.411   1_655  A
C216        C529   1.471       .  S
C216        C217   1.414   1_565  A
C217        C510   1.479       .  S
C217        C218   1.411       .  A
C218        C497   1.483       .  S
C218        C219   1.411   1_455  A
C219        C481   1.478       .  S
C220        C430   1.480       .  S
C220        N221   1.368       .  A
C220        N225   1.360       .  A
N221        C222   1.366   1_455  A
C222       C1265   1.483       .  S
C222        N223   1.358       .  A
N223        C224   1.353   1_655  A
C224        C494   1.472       .  S
C224        N225   1.353       .  A
C226        C414   1.481       .  S
C226        N227   1.358       .  A
C226        N231   1.368       .  A
N227        C228   1.354       .  A
C228        C513   1.468       .  S
C228        N229   1.351   1_545  A
N229        C230   1.357       .  A
C230       C1409   1.481       .  S
C230        N231   1.367   1_565  A
C232       C1457   1.475       .  S
C232        N233   1.355       .  A
C232        N237   1.366       .  A
N233        C234   1.349       .  A
C234        C526   1.461       .  S
C234        N235   1.352       .  A
N235        C236   1.357       .  A
C236        C398   1.465       .  S
C236        N237   1.366       .  A
C238       C1361   1.481       .  S
C238        N239   1.356       .  A
C238        N243   1.369       .  A
N239        C240   1.349       .  A
C240        C478   1.468       .  S
C240        N241   1.351       .  A
N241        C242   1.359       .  A
C242        C382   1.482       .  S
C242        N243   1.370       .  A
C244       C1121   1.475       .  S
C244        N245   1.362       .  A
C244        N249   1.357       .  A
N245        C246   1.363   1_565  A
C246        C366   1.476       .  S
C246        N247   1.360       .  A
N247        C248   1.356   1_545  A
C248        C465   1.468       .  S
C248        N249   1.352       .  A
C250       C1169   1.480       .  S
C250        N251   1.363       .  A
C250        N255   1.360       .  A
N251        C252   1.363   1_655  A
C252        C353   1.481       .  S
C252        N253   1.360       .  A
N253        C254   1.359   1_455  A
C254        C446   1.477       .  S
C254        N255   1.360       .  A
O256        C264   1.273       .  A
O256       Co276   1.995       .  S
O257        C265   1.257       .  A
O257       Co277   2.014       .  S
O258        C266   1.247       .  A
O258       Co278   1.974       .  S
O259        C267   1.268       .  A
O259       Co279   1.997       .  S
O260        C266   1.251       .  A
O260       Co277   1.996       .  S
O261        C267   1.273       .  A
O261       Co276   2.008       .  S
O262        C265   1.244       .  A
O262       Co279   1.953       .  S
O263        C264   1.269       .  A
O263       Co278   1.990       .  S
C264        C417   1.464       .  S
C265        C561   1.467       .  S
C266        C433   1.473       .  S
C267        C625   1.472       .  S
O268        C281   1.268       .  A
O268       Co276   2.008       .  S
O269        C282   1.296       .  A
O269       Co277   2.064       .  S
O270        C283   1.268       .  A
O270       Co278   2.005       .  S
O271        C284   1.273       .  A
O271       Co279   1.937       .  S
O272        C284   1.287       .  A
O272       Co277   2.030       .  S
O273        C283   1.265       .  A
O273       Co276   1.997       .  S
O274        C281   1.262       .  A
O274       Co279   1.987       .  S
O275        C282   1.272       .  A
O275       Co278   1.917       .  S
Co276       O280   2.093       .  S
Co277       O280   2.268       .  S
Co278       O280   1.937       .  S
Co279       O280   1.956       .  S
C281        C961   1.464       .  S
C282        C750   1.480       .  S
C283        C974   1.472       .  S
C284        C801   1.474       .  S
O285        C293   1.273       .  A
O285       Co305   1.981       .  S
O286        C294   1.272       .  A
O286       Co306   1.972       .  S
O287        C295   1.269       .  A
O287       Co307   2.028       .  S
O288        C296   1.272       .  A
O288       Co308   2.033       .  S
O289        C295   1.243       .  A
O289       Co306   1.896       .  S
O290        C296   1.246       .  A
O290       Co305   1.918       .  S
O291        C294   1.279       .  A
O291       Co308   2.033       .  S
O292        C293   1.272       .  A
O292       Co307   2.002       .  S
C293        C369   1.465       .  S
C294        C766   1.480       .  S
C295        C734   1.450       .  S
C296        C385   1.457       .  S
O297        C310   1.296       .  A
O297       Co305   2.059       .  S
O298        C311   1.296       .  A
O298       Co306   2.061       .  S
O299        C312   1.277       .  A
O299       Co307   2.025       .  S
O300        C313   1.273       .  A
O300       Co308   2.021       .  S
O301        C313   1.237       .  A
O301       Co306   1.931       .  S
O302        C312   1.241       .  A
O302       Co305   1.939       .  S
O303        C310   1.278       .  A
O303       Co308   1.864       .  S
O304        C311   1.274       .  A
O304       Co307   1.863       .  S
Co305       O309   2.020       .  S
Co306       O309   2.023       .  S
Co307       O309   1.975       .  S
Co308       O309   1.972       .  S
C310        C542   1.436       .  S
C311        C990   1.443       .  S
C312       C1009   1.479       .  S
C313        C593   1.470       .  S
O314        C322   1.241       .  A
O314       Co334   1.988       .  S
O315        C323   1.273       .  A
O315       Co335   1.983       .  S
O316        C324   1.272       .  A
O316       Co336   2.009       .  S
O317        C325   1.264       .  A
O317       Co337   1.980       .  S
O318        C324   1.271       .  A
O318       Co335   1.995       .  S
O319        C325   1.269       .  A
O319       Co334   2.008       .  S
O320        C323   1.273       .  A
O320       Co337   2.000       .  S
O321        C322   1.250       .  A
O321       Co336   2.039       .  S
C322        C577   1.478       .  S
C323        C785   1.466       .  S
C324        C609   1.474       .  S
C325        C817   1.466       .  S
O326        C339   1.263       .  A
O326       Co334   1.995       .  S
O327        C340   1.276       .  A
O327       Co335   1.996       .  S
O328        C341   1.298       .  A
O328       Co336   1.996       .  S
O329        C342   1.264       .  A
O329       Co337   1.993       .  S
O330        C342   1.267       .  A
O330       Co335   2.018       .  S
O331        C341   1.293       .  A
O331       Co334   1.975       .  S
O332        C339   1.262       .  A
O332       Co337   1.993       .  S
O333        C340   1.280       .  A
O333       Co336   1.992       .  S
Co334       O338   2.022       .  S
Co335       O338   2.037       .  S
Co336       O338   2.067       .  S
Co337       O338   2.036       .  S
C339        C926   1.490       .  S
C340        C401   1.470       .  S
C341        C945   1.464       .  S
C342        C350   1.478       .  S
C343        C348   1.387       .  A
C343        C344   1.406       .  A
C343        S349   1.717       .  A
C344        C345   1.408       .  A
C344        H355   1.082       .  S
C345        C354   1.376       .  A
C345        C346   1.387       .  A
C346        C347   1.403       .  A
C346        S352   1.712       .  A
C347        C348   1.405       .  A
C347        H356   1.088       .  S
C348        C351   1.372       .  A
S349        C350   1.724       .  A
C350        C351   1.388       .  A
C351        H357   1.082       .  S
S352        C353   1.724       .  A
C353        C354   1.391       .  A
C354        H358   1.081       .  S
C359        C364   1.386       .  A
C359        C360   1.405       .  A
C359        S365   1.712       .  A
C360        C361   1.406       .  A
C360        H371   1.083       .  S
C361        C370   1.373       .  A
C361        C362   1.388       .  A
C362        C363   1.398       .  A
C362        S368   1.703       .  A
C363        C364   1.399       .  A
C363        H372   1.082       .  S
C364        C367   1.367       .  A
S365        C366   1.725       .  A
C366        C367   1.387       .  A
C367        H373   1.082       .  S
S368        C369   1.718       .  A
C369        C370   1.389       .  A
C370        H374   1.083       .  S
C375        C380   1.385       .  A
C375        C376   1.405       .  A
C375        S381   1.718       .  A
C376        C377   1.407       .  A
C376        H387   1.082       .  S
C377        C386   1.371       .  A
C377        C378   1.386       .  A
C378        C379   1.398       .  A
C378        S384   1.707       .  A
C379        C380   1.402       .  A
C379        H388   1.084       .  S
C380        C383   1.365       .  A
S381        C382   1.726       .  A
C382        C383   1.390       .  A
C383        H389   1.084       .  S
S384        C385   1.720       .  A
C385        C386   1.388       .  A
C386        H390   1.082       .  S
C391        C396   1.387       .  A
C391        C392   1.399       .  A
C391        S397   1.702       .  A
C392        C393   1.401       .  A
C392        H403   1.080       .  S
C393        C402   1.368       .  A
C393        C394   1.384       .  A
C394        C395   1.408       .  A
C394        S400   1.714       .  A
C395        C396   1.408       .  A
C395        H404   1.086       .  S
C396        C399   1.377       .  A
S397        C398   1.719       .  A
C398        C399   1.387       .  A
C399        H405   1.087       .  S
S400        C401   1.726       .  A
C401        C402   1.390       .  A
C402        H406   1.079       .  S
C407        C412   1.386       .  A
C407        C408   1.404       .  A
C407        S413   1.715       .  A
C408        C409   1.406       .  A
C408        H419   1.083       .  S
C409        C418   1.371       .  A
C409        C410   1.386       .  A
C410        C411   1.402       .  A
C410        S416   1.710       .  A
C411        C412   1.404       .  A
C411        H420   1.083       .  S
C412        C415   1.369       .  A
S413        C414   1.724       .  A
C414        C415   1.390       .  A
C415        H421   1.083       .  S
S416        C417   1.722       .  A
C417        C418   1.388       .  A
C418        H422   1.084       .  S
C423        C428   1.387       .  A
C423        C424   1.400       .  A
C423        S429   1.701       .  A
C424        C425   1.400       .  A
C424        H435   1.082       .  S
C425        C434   1.372       .  A
C425        C426   1.386       .  A
C426        C427   1.407       .  A
C426        S432   1.708       .  A
C427        C428   1.406       .  A
C427        H436   1.082       .  S
C428        C431   1.379       .  A
S429        C430   1.725       .  A
C430        C431   1.391       .  A
C431        H437   1.083       .  S
S432        C433   1.727       .  A
C433        C434   1.386       .  A
C434        H438   1.083       .  S
C439        C444   1.387   1_455  A
C439        C440   1.404       .  A
C439        S445   1.710       .  A
C440        C441   1.404       .  A
C440        H451   1.084       .  S
C441        C450   1.374       .  A
C441        C442   1.387   1_455  A
C442        C443   1.403       .  A
C442        S448   1.708       .  A
C443        C444   1.404       .  A
C443        H452   1.084       .  S
C444        C447   1.374       .  A
S445        C446   1.724   1_455  A
C446        C447   1.388       .  A
C447        H453   1.084       .  S
S448        C449   1.722       .  A
C449        C450   1.386   1_655  A
C450        H454   1.083       .  S
C455        C460   1.388   1_545  A
C455        C456   1.399       .  A
C455        S461   1.705       .  A
C456        C457   1.401       .  A
C456        H467   1.084       .  S
C457        C466   1.369       .  A
C457        C458   1.388   1_545  A
C458        C459   1.400       .  A
C458        S464   1.705       .  A
C459        C460   1.401       .  A
C459        H468   1.084       .  S
C460        C463   1.368       .  A
S461        C462   1.719   1_545  A
C462        C463   1.382       .  A
C463        H469   1.084       .  S
S464        C465   1.723       .  A
C465        C466   1.384   1_565  A
C466        H470   1.084       .  S
C471        C476   1.388       .  A
C471        C472   1.398       .  A
C471        S477   1.703       .  A
C472        C473   1.399       .  A
C472        H483   1.084       .  S
C473        C482   1.364       .  A
C473        C474   1.387       .  A
C474        C475   1.401       .  A
C474        S480   1.708       .  A
C475        C476   1.402       .  A
C475        H484   1.084       .  S
C476        C479   1.369       .  A
S477        C478   1.722       .  A
C478        C479   1.386       .  A
C479        H485   1.084       .  S
S480        C481   1.721       .  A
C481        C482   1.382       .  A
C482        H486   1.083       .  S
C487        C492   1.387   1_455  A
C487        C488   1.405       .  A
C487        S493   1.712       .  A
C488        C489   1.405       .  A
C488        H499   1.083       .  S
C489        C498   1.373       .  A
C489        C490   1.387   1_455  A
C490        C491   1.399       .  A
C490        S496   1.705       .  A
C491        C492   1.401       .  A
C491        H500   1.083       .  S
C492        C495   1.369       .  A
S493        C494   1.725       .  A
C494        C495   1.385   1_455  A
C495        H501   1.083       .  S
S496        C497   1.719   1_655  A
C497        C498   1.387       .  A
C498        H502   1.083       .  S
C503        C508   1.387   1_545  A
C503        C504   1.398       .  A
C503        S509   1.704       .  A
C504        C505   1.399       .  A
C504        H515   1.084       .  S
C505        C514   1.367       .  A
C505        C506   1.387   1_545  A
C506        C507   1.402       .  A
C506        S512   1.707       .  A
C507        C508   1.402       .  A
C507        H516   1.084       .  S
C508        C511   1.368       .  A
S509        C510   1.720       .  A
C510        C511   1.385   1_545  A
C511        H517   1.084       .  S
S512        C513   1.724   1_565  A
C513        C514   1.383       .  A
C514        H518   1.084       .  S
C519        C524   1.388       .  A
C519        C520   1.398       .  A
C519        S525   1.706       .  A
C520        C521   1.399       .  A
C520        H531   1.084       .  S
C521        C530   1.364       .  A
C521        C522   1.388       .  A
C522        C523   1.399       .  A
C522        S528   1.706       .  A
C523        C524   1.401       .  A
C523        H532   1.084       .  S
C524        C527   1.365       .  A
S525        C526   1.719       .  A
C526        C527   1.384       .  A
C527        H533   1.084       .  S
S528        C529   1.719       .  A
C529        C530   1.380       .  A
C530        H534   1.084       .  S
C535        C540   1.388       .  A
C535        C536   1.393       .  A
C535        S541   1.703       .  A
C536        C537   1.399       .  A
C536        H547   1.083       .  S
C537        C546   1.360       .  A
C537        C538   1.386       .  A
C538        C539   1.398       .  A
C538        S544   1.711       .  A
C539        C540   1.400       .  A
C539        H548   1.082       .  S
C540        C543   1.356       .  A
S541        C542   1.713       .  A
C542        C543   1.376       .  A
C543        H549   1.083       .  S
S544        C545   1.723       .  A
C545        C546   1.386       .  A
C546        H550   1.083       .  S
C551        C556   1.386       .  A
C551        C552   1.407       .  A
C551        S557   1.715       .  A
C552        C553   1.408       .  A
C552        H563   1.082       .  S
C553        C562   1.375       .  A
C553        C554   1.387       .  A
C554        C555   1.397       .  A
C554        S560   1.701       .  A
C555        C556   1.399       .  A
C555        H564   1.083       .  S
C556        C559   1.366       .  A
S557        C558   1.728       .  A
C558        C559   1.387       .  A
C559        H565   1.083       .  S
S560        C561   1.721       .  A
C561        C562   1.389       .  A
C562        H566   1.082       .  S
C567        C572   1.385       .  A
C567        C568   1.409       .  A
C567        S573   1.720       .  A
C568        C569   1.411       .  A
C568        H579   1.084       .  S
C569        C578   1.378       .  A
C569        C570   1.385       .  A
C570        C571   1.405       .  A
C570        S576   1.715       .  A
C571        C572   1.407       .  A
C571        H580   1.083       .  S
C572        C575   1.375       .  A
S573        C574   1.728       .  A
C574        C575   1.392       .  A
C575        H581   1.083       .  S
S576        C577   1.725       .  A
C577        C578   1.391       .  A
C578        H582   1.084       .  S
C583        C588   1.386       .  A
C583        C584   1.409       .  A
C583        S589   1.713       .  A
C584        C585   1.411       .  A
C584        H595   1.083       .  S
C585        C594   1.374       .  A
C585        C586   1.386       .  A
C586        C587   1.394       .  A
C586        S592   1.702       .  A
C587        C588   1.396       .  A
C587        H596   1.082       .  S
C588        C591   1.367       .  A
S589        C590   1.730       .  A
C590        C591   1.383       .  A
C591        H597   1.083       .  S
S592        C593   1.708       .  A
C593        C594   1.399       .  A
C594        H598   1.083       .  S
C599        C604   1.386       .  A
C599        C600   1.403       .  A
C599        S605   1.713       .  A
C600        C601   1.405       .  A
C600        H611   1.083       .  S
C601        C610   1.371       .  A
C601        C602   1.387       .  A
C602        C603   1.403       .  A
C602        S608   1.711       .  A
C603        C604   1.404       .  A
C603        H612   1.083       .  S
C604        C607   1.370       .  A
S605        C606   1.722       .  A
C606        C607   1.389       .  A
C607        H613   1.084       .  S
S608        C609   1.723       .  A
C609        C610   1.387       .  A
C610        H614   1.084       .  S
C615        C620   1.387       .  A
C615        C616   1.400       .  A
C615        S621   1.707       .  A
C616        C617   1.402       .  A
C616        H627   1.083       .  S
C617        C626   1.367       .  A
C617        C618   1.386       .  A
C618        C619   1.406       .  A
C618        S624   1.718       .  A
C619        C620   1.408       .  A
C619        H628   1.083       .  S
C620        C623   1.375       .  A
S621        C622   1.723       .  A
C622        C623   1.391       .  A
C623        H629   1.083       .  S
S624        C625   1.723       .  A
C625        C626   1.386       .  A
C626        H630   1.082       .  S
C631        C636   1.388       .  A
C631        C632   1.397       .  A
C631        S637   1.702       .  A
C632        C633   1.399       .  A
C632        H643   1.083       .  S
C633        C642   1.365       .  A
C633        C634   1.387       .  A
C634        C635   1.402       .  A
C634        S640   1.708       .  A
C635        C636   1.403       .  A
C635        H644   1.084       .  S
C636        C639   1.369       .  A
S637        C638   1.718       .  A
C638        C639   1.384       .  A
C639        H645   1.083       .  S
S640        C641   1.722       .  A
C641        C642   1.383       .  A
C642        H646   1.083       .  S
C647        C652   1.386       .  A
C647        C648   1.403       .  A
C647        S653   1.708       .  A
C648        C649   1.404       .  A
C648        H659   1.083       .  S
C649        C658   1.373       .  A
C649        C650   1.387       .  A
C650        C651   1.403       .  A
C650        S656   1.708       .  A
C651        C652   1.403       .  A
C651        H660   1.083       .  S
C652        C655   1.372       .  A
S653        C654   1.724       .  A
C654        C655   1.387       .  A
C655        H661   1.083       .  S
S656        C657   1.725       .  A
C657        C658   1.388       .  A
C658        H662   1.083       .  S
C663        C668   1.387       .  A
C663        C664   1.404       .  A
C663        S669   1.710       .  A
C664        C665   1.405       .  A
C664        H675   1.083       .  S
C665        C674   1.373       .  A
C665        C666   1.387       .  A
C666        C667   1.402       .  A
C666        S672   1.709       .  A
C667        C668   1.403       .  A
C667        H676   1.084       .  S
C668        C671   1.373       .  A
S669        C670   1.725       .  A
C670        C671   1.388       .  A
C671        H677   1.084       .  S
S672        C673   1.721       .  A
C673        C674   1.387       .  A
C674        H678   1.083       .  S
C679        C684   1.387       .  A
C679        C680   1.402       .  A
C679        S685   1.708       .  A
C680        C681   1.403       .  A
C680        H691   1.083       .  S
C681        C690   1.372       .  A
C681        C682   1.388       .  A
C682        C683   1.401       .  A
C682        S688   1.707       .  A
C683        C684   1.401       .  A
C683        H692   1.083       .  S
C684        C687   1.368       .  A
S685        C686   1.722       .  A
C686        C687   1.385       .  A
C687        H693   1.083       .  S
S688        C689   1.720       .  A
C689        C690   1.385       .  A
C690        H694   1.083       .  S
C695        C700   1.387       .  A
C695        C696   1.399       .  A
C695        S701   1.705       .  A
C696        C697   1.400       .  A
C696        H707   1.083       .  S
C697        C706   1.367       .  A
C697        C698   1.387       .  A
C698        C699   1.400       .  A
C698        S704   1.706       .  A
C699        C700   1.401       .  A
C699        H708   1.083       .  S
C700        C703   1.366       .  A
S701        C702   1.721       .  A
C702        C703   1.384       .  A
C703        H709   1.083       .  S
S704        C705   1.724       .  A
C705        C706   1.384       .  A
C706        H710   1.084       .  S
C711        C716   1.388       .  A
C711        C712   1.399       .  A
C711        S717   1.704       .  A
C712        C713   1.400       .  A
C712        H723   1.084       .  S
C713        C722   1.368       .  A
C713        C714   1.387       .  A
C714        C715   1.404       .  A
C714        S720   1.710       .  A
C715        C716   1.405       .  A
C715        H724   1.083       .  S
C716        C719   1.372       .  A
S717        C718   1.718       .  A
C718        C719   1.386       .  A
C719        H725   1.083       .  S
S720        C721   1.724       .  A
C721        C722   1.383       .  A
C722        H726   1.083       .  S
C727        C732   1.386       .  A
C727        C728   1.403       .  A
C727        S733   1.710       .  A
C728        C729   1.404       .  A
C728        H739   1.083       .  S
C729        C738   1.373       .  A
C729        C730   1.388       .  A
C730        C731   1.393       .  A
C730        S736   1.695       .  A
C731        C732   1.395       .  A
C731        H740   1.084       .  S
C732        C735   1.358       .  A
S733        C734   1.720       .  A
C734        C735   1.383       .  A
C735        H741   1.085       .  S
S736        C737   1.721       .  A
C737        C738   1.386       .  A
C738        H742   1.083       .  S
C743        C748   1.386       .  A
C743        C744   1.399       .  A
C743        S749   1.710       .  A
C744        C745   1.402       .  A
C744        H755   1.083       .  S
C745        C754   1.367       .  A
C745        C746   1.385       .  A
C746        C747   1.410       .  A
C746        S752   1.724       .  A
C747        C748   1.413       .  A
C747        H756   1.083       .  S
C748        C751   1.379       .  A
S749        C750   1.721       .  A
C750        C751   1.394       .  A
C751        H757   1.083       .  S
S752        C753   1.729       .  A
C753        C754   1.390       .  A
C754        H758   1.083       .  S
C759        C764   1.387       .  A
C759        C760   1.397       .  A
C759        S765   1.697       .  A
C760        C761   1.397       .  A
C760        H771   1.083       .  S
C761        C770   1.371       .  A
C761        C762   1.386       .  A
C762        C763   1.414       .  A
C762        S768   1.718       .  A
C763        C764   1.414       .  A
C763        H772   1.082       .  S
C764        C767   1.387       .  A
S765        C766   1.720       .  A
C766        C767   1.397       .  A
C767        H773   1.083       .  S
S768        C769   1.732       .  A
C769        C770   1.385       .  A
C770        H774   1.083       .  S
C775        C780   1.385       .  A
C775        C776   1.405       .  A
C775        S781   1.720       .  A
C776        C777   1.409       .  A
C776        H787   1.078       .  S
C777        C786   1.372       .  A
C777        C778   1.384       .  A
C778        C779   1.400       .  A
C778        S784   1.711       .  A
C779        C780   1.404       .  A
C779        H788   1.087       .  S
C780        C783   1.366       .  A
S781        C782   1.725       .  A
C782        C783   1.392       .  A
C783        H789   1.087       .  S
S784        C785   1.722       .  A
C785        C786   1.391       .  A
C786        H790   1.078       .  S
C791        C796   1.386       .  A
C791        C792   1.407       .  A
C791        S797   1.716       .  A
C792        C793   1.408       .  A
C792        H803   1.084       .  S
C793        C802   1.376       .  A
C793        C794   1.387       .  A
C794        C795   1.399       .  A
C794        S800   1.705       .  A
C795        C796   1.400       .  A
C795        H804   1.084       .  S
C796        C799   1.367       .  A
S797        C798   1.727       .  A
C798        C799   1.386       .  A
C799        H805   1.084       .  S
S800        C801   1.722       .  A
C801        C802   1.391       .  A
C802        H806   1.084       .  S
C807        C812   1.387       .  A
C807        C808   1.405       .  A
C807        S813   1.712       .  A
C808        C809   1.406       .  A
C808        H819   1.084       .  S
C809        C818   1.374       .  A
C809        C810   1.388       .  A
C810        C811   1.397       .  A
C810        S816   1.701       .  A
C811        C812   1.398       .  A
C811        H820   1.083       .  S
C812        C815   1.366       .  A
S813        C814   1.726       .  A
C814        C815   1.385       .  A
C815        H821   1.083       .  S
S816        C817   1.720       .  A
C817        C818   1.388       .  A
C818        H822   1.084       .  S
C823        C828   1.387       .  A
C823        C824   1.398       .  A
C823        S829   1.703       .  A
C824        C825   1.400       .  A
C824        H835   1.083       .  S
C825        C834   1.366       .  A
C825        C826   1.387       .  A
C826        C827   1.403       .  A
C826        S832   1.710       .  A
C827        C828   1.404       .  A
C827        H836   1.082       .  S
C828        C831   1.370       .  A
S829        C830   1.720       .  A
C830        C831   1.385       .  A
C831        H837   1.082       .  S
S832        C833   1.725       .  A
C833        C834   1.386       .  A
C834        H838   1.083       .  S
C839        C844   1.387   1_554  A
C839        C840   1.401       .  A
C839        S845   1.708       .  A
C840        C841   1.403       .  A
C840        H851   1.083       .  S
C841        C850   1.369       .  A
C841        C842   1.387   1_554  A
C842        C843   1.403       .  A
C842        S848   1.711       .  A
C843        C844   1.403       .  A
C843        H852   1.083       .  S
C844        C847   1.370       .  A
S845        C846   1.720       .  A
C846        C847   1.384   1_554  A
C847        H853   1.083       .  S
S848        C849   1.722       .  A
C849        C850   1.387   1_556  A
C850        H854   1.083       .  S
C855        C860   1.387   1_455  A
C855        C856   1.398       .  A
C855        S861   1.704       .  A
C856        C857   1.400       .  A
C856        H867   1.083       .  S
C857        C866   1.366       .  A
C857        C858   1.387   1_455  A
C858        C859   1.400       .  A
C858        S864   1.707       .  A
C859        C860   1.401       .  A
C859        H868   1.083       .  S
C860        C863   1.366       .  A
S861        C862   1.719       .  A
C862        C863   1.383   1_455  A
C863        H869   1.083       .  S
S864        C865   1.722       .  A
C865        C866   1.386   1_655  A
C866        H870   1.083       .  S
C871        C876   1.387       .  A
C871        C872   1.404       .  A
C871        S877   1.709       .  A
C872        C873   1.404       .  A
C872        H883   1.083       .  S
C873        C882   1.376       .  A
C873        C874   1.387       .  A
C874        C875   1.402       .  A
C874        S880   1.704       .  A
C875        C876   1.402       .  A
C875        H884   1.083       .  S
C876        C879   1.371       .  A
S877        C878   1.722       .  A
C878        C879   1.385       .  A
C879        H885   1.083       .  S
S880        C881   1.724       .  A
C881        C882   1.386       .  A
C882        H886   1.083       .  S
C887        C892   1.387   1_554  A
C887        C888   1.397       .  A
C887        S893   1.700       .  A
C888        C889   1.398       .  A
C888        H899   1.083       .  S
C889        C898   1.365       .  A
C889        C890   1.388   1_554  A
C890        C891   1.400       .  A
C890        S896   1.705       .  A
C891        C892   1.400       .  A
C891        H900   1.083       .  S
C892        C895   1.367       .  A
S893        C894   1.720       .  A
C894        C895   1.384   1_554  A
C895        H901   1.083       .  S
S896        C897   1.720       .  A
C897        C898   1.383   1_556  A
C898        H902   1.084       .  S
C903        C908   1.388   1_455  A
C903        C904   1.401       .  A
C903        S909   1.706       .  A
C904        C905   1.401       .  A
C904        H915   1.083       .  S
C905        C914   1.369       .  A
C905        C906   1.388       .  A
C906        C907   1.402   1_455  A
C906        S912   1.706   1_455  A
C907        C908   1.402       .  A
C907        H916   1.083       .  S
C908        C911   1.371       .  A
S909        C910   1.720   1_455  A
C910        C911   1.384       .  A
C911        H917   1.083       .  S
S912        C913   1.721   1_655  A
C913        C914   1.384       .  A
C914        H918   1.083       .  S
C919        C924   1.384       .  A
C919        C920   1.410       .  A
C919        S925   1.724       .  A
C920        C921   1.413       .  A
C920        H931   1.082       .  S
C921        C930   1.378       .  A
C921        C922   1.385       .  A
C922        C923   1.404       .  A
C922        S928   1.718       .  A
C923        C924   1.407       .  A
C923        H932   1.083       .  S
C924        C927   1.372       .  A
S925        C926   1.729       .  A
C926        C927   1.394       .  A
C927        H933   1.083       .  S
S928        C929   1.725       .  A
C929        C930   1.397       .  A
C930        H934   1.082       .  S
C935        C940   1.388       .  A
C935        C936   1.397       .  A
C935        S941   1.705       .  A
C936        C937   1.400       .  A
C936        H947   1.084       .  S
C937        C946   1.361       .  A
C937        C938   1.387       .  A
C938        C939   1.403       .  A
C938        S944   1.714       .  A
C939        C940   1.405       .  A
C939        H948   1.083       .  S
C940        C943   1.370       .  A
S941        C942   1.720       .  A
C942        C943   1.386       .  A
C943        H949   1.083       .  S
S944        C945   1.721       .  A
C945        C946   1.381       .  A
C946        H950   1.085       .  S
C951        C956   1.386       .  A
C951        C952   1.405       .  A
C951        S957   1.716       .  A
C952        C953   1.408       .  A
C952        H963   1.082       .  S
C953        C962   1.371       .  A
C953        C954   1.386       .  A
C954        C955   1.399       .  A
C954        S960   1.709       .  A
C955        C956   1.402       .  A
C955        H964   1.083       .  S
C956        C959   1.367       .  A
S957        C958   1.726       .  A
C958        C959   1.387       .  A
C959        H965   1.084       .  S
S960        C961   1.718       .  A
C961        C962   1.389       .  A
C962        H966   1.083       .  S
C967        C972   1.386       .  A
C967        C968   1.406       .  A
C967        S973   1.718       .  A
C968        C969   1.408       .  A
C968        H979   1.083       .  S
C969        C978   1.374       .  A
C969        C970   1.386       .  A
C970        C971   1.402       .  A
C970        S976   1.711       .  A
C971        C972   1.404       .  A
C971        H980   1.084       .  S
C972        C975   1.368       .  A
S973        C974   1.722       .  A
C974        C975   1.388       .  A
C975        H981   1.084       .  S
S976        C977   1.723       .  A
C977        C978   1.392       .  A
C978        H982   1.083       .  S
C983        C988   1.387       .  A
C983        C984   1.405       .  A
C983        S989   1.702       .  A
C984        C985   1.406       .  A
C984        H995   1.083       .  S
C985        C994   1.381       .  A
C985        C986   1.388       .  A
C986        C987   1.392       .  A
C986        S992   1.687       .  A
C987        C988   1.389       .  A
C987        H996   1.084       .  S
C988        C991   1.359       .  A
S989        C990   1.720       .  A
C990        C991   1.375       .  A
C991        H997   1.082       .  S
S992        C993   1.722       .  A
C993        C994   1.390       .  A
C994        H998   1.083       .  S
C999       C1004   1.386       .  A
C999       C1000   1.412       .  A
C999       S1005   1.718       .  A
C1000      C1001   1.414       .  A
C1000      H1011   1.083       .  S
C1001      C1010   1.379       .  A
C1001      C1002   1.386       .  A
C1002      C1003   1.397       .  A
C1002      S1008   1.707       .  A
C1003      C1004   1.400       .  A
C1003      H1012   1.082       .  S
C1004      C1007   1.370       .  A
S1005      C1006   1.731       .  A
C1006      C1007   1.387       .  A
C1007      H1013   1.083       .  S
S1008      C1009   1.712       .  A
C1009      C1010   1.401       .  A
C1010      H1014   1.083       .  S
C1015      C1020   1.387   1_545  A
C1015      C1016   1.404       .  A
C1015      S1021   1.709       .  A
C1016      C1017   1.404       .  A
C1016      H1027   1.081       .  S
C1017      C1026   1.374       .  A
C1017      C1018   1.387       .  A
C1018      C1019   1.400   1_545  A
C1018      S1024   1.704   1_545  A
C1019      C1020   1.400       .  A
C1019      H1028   1.081       .  S
C1020      C1023   1.369       .  A
S1021      C1022   1.722       .  A
C1022      C1023   1.384   1_545  A
C1023      H1029   1.082       .  S
S1024      C1025   1.721   1_565  A
C1025      C1026   1.385       .  A
C1026      H1030   1.082       .  S
C1031      C1036   1.386   1_554  A
C1031      C1032   1.407       .  A
C1031      S1037   1.711       .  A
C1032      C1033   1.407       .  A
C1032      H1043   1.082       .  S
C1033      C1042   1.378       .  A
C1033      C1034   1.386   1_554  A
C1034      C1035   1.404       .  A
C1034      S1040   1.708       .  A
C1035      C1036   1.404       .  A
C1035      H1044   1.082       .  S
C1036      C1039   1.375       .  A
S1037      C1038   1.726       .  A
C1038      C1039   1.387   1_554  A
C1039      H1045   1.082       .  S
S1040      C1041   1.725   1_556  A
C1041      C1042   1.391       .  A
C1042      H1046   1.082       .  S
C1047      C1052   1.387       .  A
C1047      C1048   1.400       .  A
C1047      S1053   1.708       .  A
C1048      C1049   1.401       .  A
C1048      H1059   1.082       .  S
C1049      C1058   1.368       .  A
C1049      C1050   1.387   1_556  A
C1050      C1051   1.401       .  A
C1050      S1056   1.708       .  A
C1051      C1052   1.403   1_554  A
C1051      H1060   1.081       .  S
C1052      C1055   1.370   1_556  A
S1053      C1054   1.720       .  A
C1054      C1055   1.387   1_556  A
C1055      H1061   1.082       .  S
S1056      C1057   1.721       .  A
C1057      C1058   1.383   1_554  A
C1058      H1062   1.082       .  S
C1063      C1068   1.386       .  A
C1063      C1064   1.403       .  A
C1063      S1069   1.712       .  A
C1064      C1065   1.405       .  A
C1064      H1075   1.082       .  S
C1065      C1074   1.370       .  A
C1065      C1066   1.385       .  A
C1066      C1067   1.403       .  A
C1066      S1072   1.710       .  A
C1067      C1068   1.405       .  A
C1067      H1076   1.082       .  S
C1068      C1071   1.371       .  A
S1069      C1070   1.724       .  A
C1070      C1071   1.390       .  A
C1071      H1077   1.082       .  S
S1072      C1073   1.725       .  A
C1073      C1074   1.389       .  A
C1074      H1078   1.081       .  S
C1079      C1084   1.388       .  A
C1079      C1080   1.401       .  A
C1079      S1085   1.707       .  A
C1080      C1081   1.401       .  A
C1080      H1091   1.082       .  S
C1081      C1090   1.369       .  A
C1081      C1082   1.388       .  A
C1082      C1083   1.401       .  A
C1082      S1088   1.706       .  A
C1083      C1084   1.402       .  A
C1083      H1092   1.082       .  S
C1084      C1087   1.369       .  A
S1085      C1086   1.720       .  A
C1086      C1087   1.383       .  A
C1087      H1093   1.082       .  S
S1088      C1089   1.720       .  A
C1089      C1090   1.383       .  A
C1090      H1094   1.082       .  S
C1095      C1100   1.386   1_545  A
C1095      C1096   1.403       .  A
C1095      S1101   1.706       .  A
C1096      C1097   1.403       .  A
C1096      H1107   1.082       .  S
C1097      C1106   1.375       .  A
C1097      C1098   1.387   1_545  A
C1098      C1099   1.404       .  A
C1098      S1104   1.708       .  A
C1099      C1100   1.404       .  A
C1099      H1108   1.082       .  S
C1100      C1103   1.373       .  A
S1101      C1102   1.724       .  A
C1102      C1103   1.388   1_545  A
C1103      H1109   1.081       .  S
S1104      C1105   1.726       .  A
C1105      C1106   1.388   1_565  A
C1106      H1110   1.083       .  S
C1111      C1116   1.388       .  A
C1111      C1112   1.397       .  A
C1111      S1117   1.706       .  A
C1112      C1113   1.399       .  A
C1112      H1123   1.084       .  S
C1113      C1122   1.364       .  A
C1113      C1114   1.386       .  A
C1114      C1115   1.404       .  A
C1114      S1120   1.714       .  A
C1115      C1116   1.406       .  A
C1115      H1124   1.084       .  S
C1116      C1119   1.370       .  A
S1117      C1118   1.717       .  A
C1118      C1119   1.387       .  A
C1119      H1125   1.084       .  S
S1120      C1121   1.725       .  A
C1121      C1122   1.386       .  A
C1122      H1126   1.084       .  S
C1127      C1132   1.387       .  A
C1127      C1128   1.401       .  A
C1127      S1133   1.705       .  A
C1128      C1129   1.402       .  A
C1128      H1139   1.083       .  S
C1129      C1138   1.372       .  A
C1129      C1130   1.386       .  A
C1130      C1131   1.409       .  A
C1130      S1136   1.716       .  A
C1131      C1132   1.409       .  A
C1131      H1140   1.082       .  S
C1132      C1135   1.380       .  A
S1133      C1134   1.722       .  A
C1134      C1135   1.390       .  A
C1135      H1141   1.083       .  S
S1136      C1137   1.726       .  A
C1137      C1138   1.388       .  A
C1138      H1142   1.083       .  S
C1143      C1148   1.385       .  A
C1143      C1144   1.413       .  A
C1143      S1149   1.718       .  A
C1144      C1145   1.412       .  A
C1144      H1155   1.083       .  S
C1145      C1154   1.386       .  A
C1145      C1146   1.387       .  A
C1146      C1147   1.400       .  A
C1146      S1152   1.699       .  A
C1147      C1148   1.400       .  A
C1147      H1156   1.083       .  S
C1148      C1151   1.372       .  A
S1149      C1150   1.729       .  A
C1150      C1151   1.387       .  A
C1151      H1157   1.084       .  S
S1152      C1153   1.726       .  A
C1153      C1154   1.394       .  A
C1154      H1158   1.083       .  S
C1159      C1164   1.386       .  A
C1159      C1160   1.404       .  A
C1159      S1165   1.710       .  A
C1160      C1161   1.405       .  A
C1160      H1171   1.083       .  S
C1161      C1170   1.376       .  A
C1161      C1162   1.386       .  A
C1162      C1163   1.405       .  A
C1162      S1168   1.710       .  A
C1163      C1164   1.405       .  A
C1163      H1172   1.082       .  S
C1164      C1167   1.374       .  A
S1165      C1166   1.725       .  A
C1166      C1167   1.390       .  A
C1167      H1173   1.081       .  S
S1168      C1169   1.726       .  A
C1169      C1170   1.389       .  A
C1170      H1174   1.083       .  S
C1175      C1180   1.387       .  A
C1175      C1176   1.404       .  A
C1175      S1181   1.716       .  A
C1176      C1177   1.406       .  A
C1176      H1187   1.082       .  S
C1177      C1186   1.371       .  A
C1177      C1178   1.387       .  A
C1178      C1179   1.399       .  A
C1178      S1184   1.707       .  A
C1179      C1180   1.401       .  A
C1179      H1188   1.083       .  S
C1180      C1183   1.365       .  A
S1181      C1182   1.721       .  A
C1182      C1183   1.384       .  A
C1183      H1189   1.081       .  S
S1184      C1185   1.722       .  A
C1185      C1186   1.389       .  A
C1186      H1190   1.083       .  S
C1191      C1196   1.386       .  A
C1191      C1192   1.400       .  A
C1191      S1197   1.713       .  A
C1192      C1193   1.403       .  A
C1192      H1203   1.084       .  S
C1193      C1202   1.364       .  A
C1193      C1194   1.387       .  A
C1194      C1195   1.399       .  A
C1194      S1200   1.712       .  A
C1195      C1196   1.403       .  A
C1195      H1204   1.084       .  S
C1196      C1199   1.365       .  A
S1197      C1198   1.722       .  A
C1198      C1199   1.388       .  A
C1199      H1205   1.084       .  S
S1200      C1201   1.718       .  A
C1201      C1202   1.383       .  A
C1202      H1206   1.083       .  S
C1207      C1212   1.388       .  A
C1207      C1208   1.395       .  A
C1207      S1213   1.702       .  A
C1208      C1209   1.397       .  A
C1208      H1219   1.084       .  S
C1209      C1218   1.358       .  A
C1209      C1210   1.386       .  A
C1210      C1211   1.404       .  A
C1210      S1216   1.717       .  A
C1211      C1212   1.407       .  A
C1211      H1220   1.083       .  S
C1212      C1215   1.371       .  A
S1213      C1214   1.718       .  A
C1214      C1215   1.387       .  A
C1215      H1221   1.083       .  S
S1216      C1217   1.723       .  A
C1217      C1218   1.381       .  A
C1218      H1222   1.084       .  S
C1223      C1228   1.385       .  A
C1223      C1224   1.407       .  A
C1223      S1229   1.722       .  A
C1224      C1225   1.410       .  A
C1224      H1235   1.083       .  S
C1225      C1234   1.376       .  A
C1225      C1226   1.386       .  A
C1226      C1227   1.404       .  A
C1226      S1232   1.716       .  A
C1227      C1228   1.406       .  A
C1227      H1236   1.083       .  S
C1228      C1231   1.370       .  A
S1229      C1230   1.724       .  A
C1230      C1231   1.391       .  A
C1231      H1237   1.083       .  S
S1232      C1233   1.724       .  A
C1233      C1234   1.393       .  A
C1234      H1238   1.083       .  S
C1239      C1244   1.385       .  A
C1239      C1240   1.411       .  A
C1239      S1245   1.713       .  A
C1240      C1241   1.409       .  A
C1240      H1251   1.083       .  S
C1241      C1250   1.384       .  A
C1241      C1242   1.387       .  A
C1242      C1243   1.402       .  A
C1242      S1248   1.702       .  A
C1243      C1244   1.401       .  A
C1243      H1252   1.083       .  S
C1244      C1247   1.375       .  A
S1245      C1246   1.729       .  A
C1246      C1247   1.387       .  A
C1247      H1253   1.081       .  S
S1248      C1249   1.726       .  A
C1249      C1250   1.392       .  A
C1250      H1254   1.083       .  S
C1255      C1260   1.387       .  A
C1255      C1256   1.398       .  A
C1255      S1261   1.707       .  A
C1256      C1257   1.400       .  A
C1256      H1267   1.083       .  S
C1257      C1266   1.365       .  A
C1257      C1258   1.385       .  A
C1258      C1259   1.408       .  A
C1258      S1264   1.720       .  A
C1259      C1260   1.410       .  A
C1259      H1268   1.083       .  S
C1260      C1263   1.375       .  A
S1261      C1262   1.718       .  A
C1262      C1263   1.390       .  A
C1263      H1269   1.082       .  S
S1264      C1265   1.728       .  A
C1265      C1266   1.388       .  A
C1266      H1270   1.083       .  S
C1271      C1276   1.386       .  A
C1271      C1272   1.401       .  A
C1271      S1277   1.707       .  A
C1272      C1273   1.402       .  A
C1272      H1283   1.083       .  S
C1273      C1282   1.369       .  A
C1273      C1274   1.385       .  A
C1274      C1275   1.411       .  A
C1274      S1280   1.722       .  A
C1275      C1276   1.412       .  A
C1275      H1284   1.083       .  S
C1276      C1279   1.381       .  A
S1277      C1278   1.723       .  A
C1278      C1279   1.393       .  A
C1279      H1285   1.082       .  S
S1280      C1281   1.729       .  A
C1281      C1282   1.390       .  A
C1282      H1286   1.083       .  S
C1287      C1292   1.386       .  A
C1287      C1288   1.405       .  A
C1287      S1293   1.711       .  A
C1288      C1289   1.406       .  A
C1288      H1299   1.083       .  S
C1289      C1298   1.375       .  A
C1289      C1290   1.388       .  A
C1290      C1291   1.396       .  A
C1290      S1296   1.698       .  A
C1291      C1292   1.397       .  A
C1291      H1300   1.084       .  S
C1292      C1295   1.364       .  A
S1293      C1294   1.727       .  A
C1294      C1295   1.384       .  A
C1295      H1301   1.081       .  S
S1296      C1297   1.721       .  A
C1297      C1298   1.387       .  A
C1298      H1302   1.083       .  S
C1303      C1308   1.387       .  A
C1303      C1304   1.404       .  A
C1303      S1309   1.707       .  A
C1304      C1305   1.404       .  A
C1304      H1315   1.082       .  S
C1305      C1314   1.375       .  A
C1305      C1306   1.386       .  A
C1306      C1307   1.406       .  A
C1306      S1312   1.711       .  A
C1307      C1308   1.406       .  A
C1307      H1316   1.082       .  S
C1308      C1311   1.377       .  A
S1309      C1310   1.726       .  A
C1310      C1311   1.390       .  A
C1311      H1317   1.083       .  S
S1312      C1313   1.726       .  A
C1313      C1314   1.390       .  A
C1314      H1318   1.083       .  S
C1319      C1324   1.386       .  A
C1319      C1320   1.400       .  A
C1319      S1325   1.705       .  A
C1320      C1321   1.401       .  A
C1320      H1331   1.083       .  S
C1321      C1330   1.369       .  A
C1321      C1322   1.386       .  A
C1322      C1323   1.404       .  A
C1322      S1328   1.711       .  A
C1323      C1324   1.405       .  A
C1323      H1332   1.082       .  S
C1324      C1327   1.373       .  A
S1325      C1326   1.724       .  A
C1326      C1327   1.390       .  A
C1327      H1333   1.083       .  S
S1328      C1329   1.726       .  A
C1329      C1330   1.387       .  A
C1330      H1334   1.083       .  S
C1335      C1340   1.386       .  A
C1335      C1336   1.407       .  A
C1335      S1341   1.712       .  A
C1336      C1337   1.407       .  A
C1336      H1347   1.083       .  S
C1337      C1346   1.378       .  A
C1337      C1338   1.387       .  A
C1338      C1339   1.401       .  A
C1338      S1344   1.703       .  A
C1339      C1340   1.402       .  A
C1339      H1348   1.083       .  S
C1340      C1343   1.372       .  A
S1341      C1342   1.727       .  A
C1342      C1343   1.388       .  A
C1343      H1349   1.083       .  S
S1344      C1345   1.725       .  A
C1345      C1346   1.390       .  A
C1346      H1350   1.083       .  S
C1351      C1356   1.386       .  A
C1351      C1352   1.408       .  A
C1351      S1357   1.706       .  A
C1352      C1353   1.406       .  A
C1352      H1363   1.083       .  S
C1353      C1362   1.383       .  A
C1353      C1354   1.387       .  A
C1354      C1355   1.401       .  A
C1354      S1360   1.697       .  A
C1355      C1356   1.399       .  A
C1355      H1364   1.083       .  S
C1356      C1359   1.374       .  A
S1357      C1358   1.731       .  A
C1358      C1359   1.388       .  A
C1359      H1365   1.083       .  S
S1360      C1361   1.726       .  A
C1361      C1362   1.390       .  A
C1362      H1366   1.083       .  S
C1367      C1372   1.386       .  A
C1367      C1368   1.402       .  A
C1367      S1373   1.711       .  A
C1368      C1369   1.404       .  A
C1368      H1379   1.083       .  S
C1369      C1378   1.373       .  A
C1369      C1370   1.384       .  A
C1370      C1371   1.417       .  A
C1370      S1376   1.729       .  A
C1371      C1372   1.418       .  A
C1371      H1380   1.082       .  S
C1372      C1375   1.386       .  A
S1373      C1374   1.722       .  A
C1374      C1375   1.399       .  A
C1375      H1381   1.082       .  S
S1376      C1377   1.734       .  A
C1377      C1378   1.392       .  A
C1378      H1382   1.083       .  S
C1383      C1388   1.387       .  A
C1383      C1384   1.403       .  A
C1383      S1389   1.707       .  A
C1384      C1385   1.404       .  A
C1384      H1395   1.084       .  S
C1385      C1394   1.374       .  A
C1385      C1386   1.387       .  A
C1386      C1387   1.402       .  A
C1386      S1392   1.706       .  A
C1387      C1388   1.402       .  A
C1387      H1396   1.083       .  S
C1388      C1391   1.371       .  A
S1389      C1390   1.725       .  A
C1390      C1391   1.387       .  A
C1391      H1397   1.083       .  S
S1392      C1393   1.725       .  A
C1393      C1394   1.388       .  A
C1394      H1398   1.084       .  S
C1399      C1404   1.386       .  A
C1399      C1400   1.399       .  A
C1399      S1405   1.709       .  A
C1400      C1401   1.401       .  A
C1400      H1411   1.084       .  S
C1401      C1410   1.365       .  A
C1401      C1402   1.385       .  A
C1402      C1403   1.407       .  A
C1402      S1408   1.719       .  A
C1403      C1404   1.409       .  A
C1403      H1412   1.083       .  S
C1404      C1407   1.373       .  A
S1405      C1406   1.722       .  A
C1406      C1407   1.391       .  A
C1407      H1413   1.083       .  S
S1408      C1409   1.727       .  A
C1409      C1410   1.389       .  A
C1410      H1414   1.084       .  S
C1415      C1420   1.386       .  A
C1415      C1416   1.410       .  A
C1415      S1421   1.713       .  A
C1416      C1417   1.409       .  A
C1416      H1427   1.083       .  S
C1417      C1426   1.382       .  A
C1417      C1418   1.387       .  A
C1418      C1419   1.398       .  A
C1418      S1424   1.699       .  A
C1419      C1420   1.398       .  A
C1419      H1428   1.083       .  S
C1420      C1423   1.370       .  A
S1421      C1422   1.730       .  A
C1422      C1423   1.384       .  A
C1423      H1429   1.083       .  S
S1424      C1425   1.723       .  A
C1425      C1426   1.392       .  A
C1426      H1430   1.082       .  S
C1431      C1436   1.387       .  A
C1431      C1432   1.404       .  A
C1431      S1437   1.703       .  A
C1432      C1433   1.403       .  A
C1432      H1443   1.083       .  S
C1433      C1442   1.377       .  A
C1433      C1434   1.387       .  A
C1434      C1435   1.405       .  A
C1434      S1440   1.704       .  A
C1435      C1436   1.404       .  A
C1435      H1444   1.082       .  S
C1436      C1439   1.377       .  A
S1437      C1438   1.723       .  A
C1438      C1439   1.386       .  A
C1439      H1445   1.080       .  S
S1440      C1441   1.728       .  A
C1441      C1442   1.388       .  A
C1442      H1446   1.083       .  S
C1447      C1452   1.387       .  A
C1447      C1448   1.397       .  A
C1447      S1453   1.710       .  A
C1448      C1449   1.401       .  A
C1448      H1459   1.083       .  S
C1449      C1458   1.362       .  A
C1449      C1450   1.386       .  A
C1450      C1451   1.402       .  A
C1450      S1456   1.716       .  A
C1451      C1452   1.406       .  A
C1451      H1460   1.083       .  S
C1452      C1455   1.366       .  A
S1453      C1454   1.716       .  A
C1454      C1455   1.385       .  A
C1455      H1461   1.083       .  S
S1456      C1457   1.724       .  A
C1457      C1458   1.388       .  A
C1458      H1462   1.083       .  S
C1463      C1468   1.385       .  A
C1463      C1464   1.404       .  A
C1463      S1469   1.712       .  A
C1464      C1465   1.405       .  A
C1464      H1475   1.083       .  S
C1465      C1474   1.373       .  A
C1465      C1466   1.386       .  A
C1466      C1467   1.404       .  A
C1466      S1472   1.713       .  A
C1467      C1468   1.406       .  A
C1467      H1476   1.083       .  S
C1468      C1471   1.373       .  A
S1469      C1470   1.723       .  A
C1470      C1471   1.389       .  A
C1471      H1477   1.083       .  S
S1472      C1473   1.725       .  A
C1473      C1474   1.390       .  A
C1474      H1478   1.083       .  S
C1479      C1484   1.387       .  A
C1479      C1480   1.403       .  A
C1479      S1485   1.715       .  A
C1480      C1481   1.405       .  A
C1480      H1491   1.083       .  S
C1481      C1490   1.371       .  A
C1481      C1482   1.387       .  A
C1482      C1483   1.399       .  A
C1482      S1488   1.708       .  A
C1483      C1484   1.401       .  A
C1483      H1492   1.083       .  S
C1484      C1487   1.365       .  A
S1485      C1486   1.720       .  A
C1486      C1487   1.384       .  A
C1487      H1493   1.083       .  S
S1488      C1489   1.722       .  A
C1489      C1490   1.390       .  A
C1490      H1494   1.083       .  S
