geometry optimzed in LAMMPS
_audit_creation_date              2020-11-30 
_audit_creation_method            'lammps2cif' 
_symmetry_space_group_name_H-M    'P1' 
_symmetry_Int_Tables_number       1 
_symmetry_cell_setting            triclinic 
loop_ 
_symmetry_equiv_pos_as_xyz 
  x,y,z 
_cell_length_a                    41.98163677209632 
_cell_length_b                    41.70748065758433 
_cell_length_c                    44.97535694720125 
_cell_angle_alpha                 88.88749954786455 
_cell_angle_beta                  92.42925249489063 
_cell_angle_gamma                 88.06571574661517 
loop_ 
_atom_site_label 
_atom_site_type_symbol 
_atom_site_fract_x 
_atom_site_fract_y 
_atom_site_fract_z 
_atom_site_charge 
Zr1        Zr  0.49295229  0.49900517  0.43451236     2.17510
O2          O  0.46608257  0.47284599  0.39307928    -0.51660
O3          O  0.52425730  0.53318830  0.40677732    -0.74860
O4          O  0.45832904  0.54357632  0.41186799    -0.81650
O5          O  0.55827809  0.43377894  0.44814722    -0.83390
O6          O  0.44064768  0.57282938  0.45051990    -0.79020
O7          O  0.53792703  0.46840798  0.41216041    -0.90650
O8          O  0.55577607  0.55808896  0.44102891    -0.76610
O9          O  0.49413667  0.54570794  0.46412283    -0.86100
O10         O  0.54125602  0.49734641  0.46452197    -0.85790
O11         O  0.44672866  0.49753424  0.46429140    -0.72550
O12         O  0.49127968  0.45039627  0.46389189    -0.84690
Zr13       Zr  0.49636568  0.49278347  0.55434378     2.26420
Zr14       Zr  0.45052322  0.54326886  0.49563024     2.06270
Zr15       Zr  0.53914832  0.45026741  0.49452129     2.10050
Zr16       Zr  0.54239110  0.54412424  0.49277313     1.78760
O17         O  0.54679291  0.39256998  0.48893833    -0.93490
O18         O  0.53179407  0.60192159  0.48992546    -0.41300
O19         O  0.54210428  0.49666077  0.52436952    -0.77930
O20         O  0.49859856  0.54216400  0.52576392    -0.96620
O21         O  0.44871425  0.49548727  0.52423500    -0.89920
O22         O  0.49416306  0.44652337  0.52420509    -0.92760
C23         C  0.54625830  0.55201983  0.41400574     1.00990
C24         C  0.55863679  0.44662829  0.42227156     1.13920
C25         C  0.44333058  0.56798594  0.42287488     1.04700
O26         O  0.45410877  0.59897636  0.51043659    -0.94920
O27         O  0.42371854  0.54870856  0.54079736    -0.90660
O28         O  0.45227342  0.52150946  0.57783576    -0.83810
C29         C  0.42827296  0.53922114  0.56779570     1.11340
O30         O  0.41893833  0.42554573  0.45199141    -0.96890
Zr31       Zr  0.44601881  0.44958119  0.49467387     1.88940
O32         O  0.46147022  0.45846062  0.57965955    -0.73540
O33         O  0.39267927  0.54806910  0.48839959    -0.52800
O34         O  0.38905086  0.46292138  0.49453960    -0.97480
O35         O  0.45186133  0.39115203  0.49566081    -0.54700
O36         O  0.42995540  0.43473400  0.54447151    -0.74060
C37         C  0.43868783  0.44062542  0.57152034     0.98290
O38         O  0.52110777  0.51850596  0.59718709    -0.62880
O39         O  0.59520172  0.46040824  0.50538465    -0.57680
O40         O  0.53406598  0.45241124  0.57821528    -0.94360
O41         O  0.55473430  0.42423417  0.54031051    -0.92790
O42         O  0.60010596  0.53579106  0.49339828    -0.93150
O43         O  0.57113437  0.57139868  0.53249831    -0.91930
C44         C  0.55163161  0.42959221  0.56781171     1.17130
H45         H  0.56041060  0.49725159  0.45342072     0.33070
H46         H  0.49889466  0.56022890  0.53888518     0.43920
H47         H  0.49492703  0.42702224  0.53616481     0.37450
H48         H  0.42764454  0.49934638  0.45151450     0.33930
H49         H  0.55237448  0.61097995  0.48468151     0.25720
H50         H  0.38804569  0.57008243  0.48038522     0.31660
H51         H  0.37959568  0.44444341  0.50464832     0.37570
H52         H  0.60772152  0.55378191  0.48121529     0.32020
H53         H  0.60598131  0.43893848  0.50710400     0.30900
H54         H  0.56993036  0.38815750  0.49291026     0.32580
H55         H  0.43174242  0.38365075  0.50367047     0.31550
H56         H  0.56452573  0.56079437  0.55102541     0.35550
H57         H  0.54420328  0.51758904  0.59350067     0.28280
H58         H  0.47119309  0.48584030  0.37535787     0.32520
H59         H  0.40161966  0.41297341  0.46018993     0.35370
H60         H  0.60288558  0.47015649  0.48691012     0.27980
H61         H  0.51476239  0.54150107  0.59457077     0.40850
H62         H  0.46287214  0.61030165  0.49322483     0.30900
H63         H  0.51788597  0.60548956  0.47174940     0.38520
H64         H  0.46825857  0.38569435  0.51157098     0.30370
H65         H  0.38719628  0.53369986  0.47185839     0.30430
H66         H  0.44310339  0.47753131  0.39569555     0.30700
Zr67       Zr  0.42143497  0.24615666  0.23082076     2.17510
O68         O  0.37191244  0.26920691  0.24862527    -0.51660
O69         O  0.39905304  0.21198568  0.19446000    -0.74860
O70         O  0.40011931  0.28289264  0.18875923    -0.81650
O71         O  0.43341523  0.18874123  0.29866040    -0.83390
O72         O  0.44304811  0.30427733  0.16756806    -0.79020
O73         O  0.39785676  0.20105434  0.26041025    -0.90650
O74         O  0.43865511  0.17708909  0.18103637    -0.76610
O75         O  0.45793490  0.24328488  0.19156437    -0.86100
O76         O  0.45495746  0.19907728  0.23816694    -0.85790
O77         O  0.45219489  0.29378191  0.23446113    -0.72550
O78         O  0.44908756  0.25268708  0.27823193    -0.84690
Zr79       Zr  0.55073679  0.24879898  0.25177199     2.26420
Zr80       Zr  0.48988420  0.28888075  0.19621255     2.06270
Zr81       Zr  0.48333344  0.20585765  0.28410247     2.10050
Zr82       Zr  0.49054899  0.19621760  0.19911834     1.78760
O83         O  0.47309237  0.19341887  0.33601826    -0.93490
O84         O  0.49234146  0.20685628  0.14574737    -0.41300
O85         O  0.52044702  0.20104619  0.24600817    -0.77930
O86         O  0.52362425  0.24148793  0.20374553    -0.96620
O87         O  0.51734137  0.29598095  0.24277913    -0.89920
O88         O  0.51326587  0.25257829  0.28987163    -0.92760
C89         C  0.40937115  0.18738765  0.18096489     1.00990
C90         C  0.40785771  0.18384912  0.28370227     1.13920
C91         C  0.41316091  0.30066176  0.16878331     1.04700
O92         O  0.49468909  0.29609182  0.14275773    -0.94920
O93         O  0.54240383  0.29336517  0.17955347    -0.90660
O94         O  0.57226748  0.29424068  0.22177685    -0.83810
C95         C  0.56396203  0.30587825  0.19553347     1.11340
O96         O  0.43340163  0.32747646  0.29883951    -0.96890
Zr97       Zr  0.48078471  0.29946255  0.28139945     1.88940
O98         O  0.57270323  0.28673814  0.28525246    -0.73540
O99         O  0.49041996  0.34704140  0.20062429    -0.52800
O100        O  0.47897303  0.35675901  0.26946281    -0.97480
O101        O  0.47648199  0.29252374  0.33505053    -0.54700
O102        O  0.53185068  0.31937097  0.30002484    -0.74060
C103        C  0.56152395  0.31099121  0.29880623     0.98290
O104        O  0.60098783  0.22559103  0.23579721    -0.62880
O105        O  0.49838740  0.15175173  0.26898466    -0.57680
O106        O  0.57095087  0.21434617  0.29668268    -0.94360
O107        O  0.52730436  0.19398634  0.31724438    -0.92790
O108        O  0.49388231  0.13799049  0.20502616    -0.93150
O109        O  0.53718400  0.16878369  0.17976794    -0.91930
C110        C  0.55717666  0.19749329  0.31702651     1.17130
H111        H  0.44344527  0.17946512  0.23790087     0.33070
H112        H  0.53930453  0.23880378  0.18880991     0.43920
H113        H  0.52357739  0.25357728  0.30940781     0.37450
H114        H  0.43823592  0.31243451  0.23069998     0.33930
H115        H  0.49129669  0.18544110  0.13669879     0.25720
H116        H  0.48500249  0.35543986  0.18023539     0.31660
H117        H  0.48837409  0.36697884  0.28732291     0.37570
H118        H  0.48464309  0.12980915  0.18613952     0.32020
H119        H  0.50075168  0.13861125  0.28741078     0.30900
H120        H  0.47584352  0.16985400  0.33860699     0.32580
H121        H  0.49850023  0.29396151  0.34358828     0.31550
H122        H  0.55510370  0.17467950  0.19338039     0.35550
H123        H  0.59799033  0.20214590  0.23652658     0.28280
H124        H  0.35558850  0.26442887  0.23294279     0.32520
H125        H  0.44121836  0.34216728  0.31435688     0.35370
H126        H  0.47941688  0.14329498  0.25851504     0.27980
H127        H  0.60112568  0.23109413  0.21428705     0.40850
H128        H  0.49609706  0.27404312  0.13504971     0.30900
H129        H  0.47147085  0.21745891  0.13999184     0.38520
H130        H  0.47129050  0.26972358  0.33796123     0.30370
H131        H  0.47131067  0.35281214  0.21174740     0.30430
H132        H  0.37436072  0.29269398  0.24692021     0.30700
C133        C  0.78958997  0.82772059  0.99095453     0.02800
C134        C  0.80629421  0.80246154  0.97616063    -0.13350
C135        C  0.79262725  0.78698012  0.95085561     0.00300
C136        C  0.76271207  0.79899669  0.93918134    -0.11870
C137        C  0.74773797  0.82602545  0.95073159     0.02800
C138        C  0.75956466  0.83801300  0.97773094    -0.11290
H139        H  0.83054334  0.79611148  0.98330460     0.08390
H140        H  0.75170388  0.78869594  0.91953715     0.05920
H141        H  0.74443943  0.85573127  0.98713583     0.05770
C142        C  0.94356137  0.96456628  0.99457743     0.02800
C143        C  0.96897046  0.94736848  0.98174049    -0.13350
C144        C  0.97950028  0.95694814  0.95350440     0.00300
C145        C  0.96328611  0.98267025  0.93851581    -0.11870
C146        C  0.94007210  0.00102122  0.95194325     0.02800
C147        C  0.93103350  0.99272476  0.98038858    -0.11290
H148        H  0.97936063  0.92649813  0.99339385     0.08390
H149        H  0.96795992  0.98793100  0.91542768     0.05920
H150        H  0.91172283  0.00627796  0.99011166     0.05770
C151        C  0.98149091  0.82203793  0.80552172     0.02800
C152        C  0.97215439  0.83026050  0.77582570    -0.13350
C153        C  0.94530521  0.81693358  0.76163477     0.00300
C154        C  0.92880304  0.79323451  0.77661442    -0.11870
C155        C  0.93834698  0.78301181  0.80575336     0.02800
C156        C  0.96542085  0.79699646  0.81966337    -0.11290
H157        H  0.98473649  0.84837890  0.76397366     0.08390
H158        H  0.90705343  0.78443648  0.76634347     0.05920
H159        H  0.97348346  0.78914648  0.84183178     0.05770
C160        C  0.07470800  0.89939665  0.87629497    -0.02810
C161        C  0.86619497  0.89925560  0.08250041    -0.02810
C162        C  0.79438324  0.99274608  0.79209059     0.02800
C163        C  0.76550948  0.98258039  0.80285458    -0.13350
C164        C  0.74942706  0.95752528  0.78918968     0.00300
C165        C  0.76113063  0.94441812  0.76300348    -0.11870
C166        C  0.79067199  0.95369328  0.75237733     0.02800
C167        C  0.80712185  0.97785084  0.76743667    -0.11290
H168        H  0.75675901  0.99265038  0.82313155     0.08390
H169        H  0.74781243  0.92609411  0.75178229     0.05920
H170        H  0.83041901  0.98467970  0.76060278     0.05770
C171        C  0.86843487  0.88698281  0.66572258    -0.02810
C172        C  0.85657577  0.69299452  0.87181897    -0.02810
C173        C  0.65664599  0.89664636  0.86563809    -0.02810
C174        C  0.86419247  0.08326675  0.86867903    -0.02810
Zr175      Zr  0.23944957  0.49964199  0.30091409     2.17510
O176        O  0.26544349  0.47212945  0.34405873    -0.51660
O177        O  0.20627703  0.53603071  0.32691611    -0.74860
O178        O  0.27634612  0.54095423  0.32090233    -0.81650
O179        O  0.17313584  0.44540742  0.28460756    -0.83390
O180        O  0.27551557  0.57552661  0.28201157    -0.79020
O181        O  0.19622770  0.46850996  0.32436721    -0.90650
O182        O  0.17372308  0.56283084  0.29220583    -0.76610
O183        O  0.23786237  0.54683175  0.27034153    -0.86100
O184        O  0.19205016  0.50209746  0.26962455    -0.85790
O185        O  0.28634408  0.49524982  0.27147290    -0.72550
O186        O  0.24331949  0.45263647  0.27047582    -0.84690
Zr187      Zr  0.23707006  0.49979479  0.17968944     2.26420
Zr188      Zr  0.28289482  0.54260537  0.24037846     2.06270
Zr189      Zr  0.19583942  0.45630176  0.23936389     2.10050
Zr190      Zr  0.19002876  0.54998191  0.24125316     1.78760
O191        O  0.19793355  0.39889963  0.25068372    -0.93490
O192        O  0.19991519  0.60706363  0.24449758    -0.41300
O193        O  0.19096131  0.50408942  0.20932130    -0.77930
O194        O  0.23502472  0.54688609  0.20961569    -0.96620
O195        O  0.28497154  0.49767235  0.20958048    -0.89920
O196        O  0.24058848  0.45205407  0.20961565    -0.92760
C197        C  0.18326224  0.55564818  0.31933488     1.00990
C198        C  0.17420313  0.45138172  0.31210037     1.13920
C199        C  0.28410484  0.56783074  0.30862867     1.04700
O200        O  0.29069479  0.59744015  0.22343207    -0.94920
O201        O  0.31085257  0.54973177  0.19610297    -0.90660
O202        O  0.28019751  0.53120458  0.15753740    -0.83810
C203        C  0.30493308  0.54547066  0.16848702     1.11340
O204        O  0.32039509  0.42001067  0.27696559    -0.96890
Zr205      Zr  0.28837931  0.45025080  0.23882475     1.88940
O206        O  0.27112657  0.46637376  0.15304431    -0.73540
O207        O  0.33820281  0.53679441  0.25927921    -0.52800
O208        O  0.34444217  0.46332842  0.23748183    -0.97480
O209        O  0.28177825  0.39234397  0.23918733    -0.54700
O210        O  0.30113575  0.43628128  0.18740200    -0.74060
C211        C  0.29247551  0.44511860  0.16045799     0.98290
O212        O  0.20920583  0.52719611  0.13744177    -0.62880
O213        O  0.13844664  0.45907859  0.22847114    -0.57680
O214        O  0.20425372  0.45645527  0.15735930    -0.94360
O215        O  0.18214677  0.42926383  0.19528203    -0.92790
O216        O  0.13268756  0.54262209  0.23902059    -0.93150
O217        O  0.16235198  0.58147573  0.20133979    -0.91930
C218        C  0.18774520  0.43334313  0.16794998     1.17130
H219        H  0.17279714  0.50282444  0.28058223     0.33070
H220        H  0.23516674  0.56588702  0.19699196     0.43920
H221        H  0.24080529  0.43278498  0.19811672     0.37450
H222        H  0.30522718  0.49476676  0.28452749     0.33930
H223        H  0.18033207  0.61654885  0.25277321     0.25720
H224        H  0.34968892  0.55334314  0.24835634     0.31660
H225        H  0.35348076  0.44879451  0.22261302     0.37570
H226        H  0.12365960  0.56083017  0.25011304     0.32020
H227        H  0.13095483  0.43778787  0.23462358     0.30900
H228        H  0.17609813  0.39173923  0.24586520     0.32580
H229        H  0.29477088  0.38432372  0.22285214     0.31550
H230        H  0.16805600  0.57039526  0.18293369     0.35550
H231        H  0.18632526  0.52419899  0.14078673     0.28280
H232        H  0.26162791  0.48667239  0.36078088     0.32520
H233        H  0.33673776  0.40779585  0.26615040     0.35370
H234        H  0.12986328  0.47398350  0.24326310     0.27980
H235        H  0.21230275  0.55027173  0.14093227     0.40850
H236        H  0.26958831  0.60846626  0.22494759     0.30900
H237        H  0.21642259  0.60863700  0.26073804     0.38520
H238        H  0.25945152  0.38941290  0.23210161     0.30370
H239        H  0.33839620  0.54395467  0.28012097     0.30430
H240        H  0.28853854  0.47344805  0.34076609     0.30700
Zr241      Zr  0.25426480  0.24990158  0.55125409     2.17510
O242        O  0.23155783  0.22397263  0.59405800    -0.51660
O243        O  0.29163286  0.28247096  0.57754136    -0.74860
O244        O  0.29572466  0.21100443  0.57183141    -0.81650
O245        O  0.19554088  0.32191577  0.54107443    -0.83390
O246        O  0.31841599  0.18795860  0.53217439    -0.79020
O247        O  0.22282929  0.29170801  0.57710497    -0.90650
O248        O  0.31357418  0.31457859  0.54289456    -0.76610
O249        O  0.29872124  0.25106202  0.52000254    -0.86100
O250        O  0.25144140  0.29884084  0.52293819    -0.85790
O251        O  0.24876816  0.20409904  0.51973624    -0.72550
O252        O  0.20426456  0.24843916  0.52298966    -0.84690
Zr253      Zr  0.24006143  0.25512697  0.43132949     2.26420
Zr254      Zr  0.29240987  0.20730930  0.48756056     2.06270
Zr255      Zr  0.20252854  0.29760730  0.49478485     2.10050
Zr256      Zr  0.29537867  0.30012908  0.49250648     1.78760
O257        O  0.14754924  0.29323495  0.50916949    -0.93490
O258        O  0.35274716  0.28926818  0.49224713    -0.41300
O259        O  0.24617777  0.30076984  0.46273399    -0.77930
O260        O  0.29049119  0.25652801  0.45907339    -0.96620
O261        O  0.24399583  0.20576250  0.45888674    -0.89920
O262        O  0.19643002  0.25318257  0.46329758    -0.92760
C263        C  0.30960433  0.30509289  0.56989366     1.00990
C264        C  0.20469670  0.31596330  0.56795699     1.13920
C265        C  0.31593043  0.19153775  0.55995758     1.04700
O266        O  0.34917408  0.19410507  0.48541448    -0.94920
O267        O  0.31097179  0.20147069  0.43902238    -0.90660
O268        O  0.26625485  0.20684531  0.41020641    -0.83810
C269        C  0.29308990  0.19231964  0.41765939     1.11340
O270        O  0.17811924  0.17310917  0.53017165    -0.96890
Zr271      Zr  0.19997633  0.20388220  0.48959307     1.88940
O272        O  0.20443186  0.22335068  0.40363202    -0.73540
O273        O  0.28220819  0.15058569  0.48178160    -0.52800
O274        O  0.21159351  0.14659370  0.48503932    -0.97480
O275        O  0.14228067  0.21118435  0.49252698    -0.54700
O276        O  0.18034562  0.19265480  0.43812879    -0.74060
C277        C  0.18520525  0.20198196  0.41112405     0.98290
O278        O  0.26311998  0.28104001  0.38875673    -0.62880
O279        O  0.19942308  0.35532915  0.48509354    -0.57680
O280        O  0.19332984  0.28896899  0.41188513    -0.94360
O281        O  0.17230569  0.31400340  0.45136839    -0.92790
O282        O  0.28542581  0.35796858  0.49340256    -0.93150
O283        O  0.32026713  0.32927306  0.45274532    -0.91930
C284        C  0.17178919  0.30689183  0.42399491     1.17130
H285        H  0.25271472  0.31764961  0.53500472     0.33070
H286        H  0.30772212  0.25786281  0.44558634     0.43920
H287        H  0.17595963  0.25376490  0.45271523     0.37450
H288        H  0.25075899  0.18460149  0.53172132     0.33930
H289        H  0.36229825  0.30898635  0.50001546     0.25720
H290        H  0.30308792  0.14066203  0.47702782     0.31660
H291        H  0.19379057  0.13873867  0.47232727     0.37570
H292        H  0.30398130  0.36627127  0.50479423     0.32020
H293        H  0.18120058  0.36342277  0.49641512     0.30900
H294        H  0.13904194  0.31565097  0.50957217     0.32580
H295        H  0.13318349  0.19635744  0.47774853     0.31550
H296        H  0.30770769  0.32393883  0.43448418     0.35550
H297        H  0.26260830  0.30412558  0.39351908     0.28280
H298        H  0.24725049  0.22709408  0.61072438     0.32520
H299        H  0.16373245  0.15765747  0.52058623     0.35370
H300        H  0.21850457  0.36358159  0.49566737     0.27980
H301        H  0.28601719  0.27445349  0.39042336     0.40850
H302        H  0.35944742  0.21512551  0.48562373     0.30900
H303        H  0.35727392  0.27296144  0.50829498     0.38520
H304        H  0.13696872  0.23286003  0.48402673     0.30370
H305        H  0.27821020  0.14241927  0.50203874     0.30430
H306        H  0.23327233  0.20073980  0.59000753     0.30700
Zr307      Zr  0.42791808  0.75056376  0.73691283     2.17510
O308        O  0.37871484  0.77684535  0.75197654    -0.51660
O309        O  0.40358588  0.71282581  0.70513556    -0.74860
O310        O  0.40855975  0.78351065  0.69094858    -0.81650
O311        O  0.44401986  0.69052197  0.80110960    -0.83390
O312        O  0.45184056  0.78348509  0.66338218    -0.79020
O313        O  0.40300606  0.71182366  0.77198568    -0.90650
O314        O  0.44356880  0.68533161  0.68277658    -0.76610
O315        O  0.46300976  0.74535439  0.69721828    -0.86100
O316        O  0.46205642  0.70376665  0.74451682    -0.85790
O317        O  0.45799987  0.79873823  0.73898856    -0.72550
O318        O  0.45786235  0.75862186  0.78305937    -0.84690
Zr319      Zr  0.55802387  0.75180184  0.75249187     2.26420
Zr320      Zr  0.49359764  0.79160006  0.69950419     2.06270
Zr321      Zr  0.49216544  0.71202739  0.78945412     2.10050
Zr322      Zr  0.49605100  0.69895124  0.70430826     1.78760
O323        O  0.48129731  0.72292781  0.84111865    -0.93490
O324        O  0.50215824  0.70477252  0.65085845    -0.41300
O325        O  0.52736262  0.70441832  0.75001873    -0.77930
O326        O  0.52855017  0.74520580  0.70582103    -0.96620
O327        O  0.52448810  0.79857651  0.74400295    -0.89920
O328        O  0.52302368  0.75802491  0.79219328    -0.92760
C329        C  0.41392814  0.69244581  0.68678266     1.00990
C330        C  0.41483778  0.69262295  0.79311158     1.13920
C331        C  0.42252000  0.79040706  0.66633082     1.04700
O332        O  0.51268522  0.79630572  0.64940192    -0.94920
O333        O  0.54133642  0.81734880  0.69289236    -0.90660
O334        O  0.58235215  0.79136596  0.71931694    -0.83810
C335        C  0.57055720  0.81301615  0.70061226     1.11340
O336        O  0.44642250  0.83526644  0.80480488    -0.96890
Zr337      Zr  0.49050402  0.80496868  0.78380994     1.88940
O338        O  0.58393785  0.79039067  0.78207799    -0.73540
O339        O  0.47363394  0.84727708  0.69642271    -0.52800
O340        O  0.48950285  0.86019116  0.76496772    -0.97480
O341        O  0.48921933  0.80481363  0.83802562    -0.54700
O342        O  0.54401938  0.82296658  0.79823152    -0.74060
C343        C  0.57375335  0.81476014  0.79588892     0.98290
O344        O  0.60536811  0.72355750  0.73555293    -0.62880
O345        O  0.50094887  0.65416586  0.79569354    -0.57680
O346        O  0.58056951  0.72186246  0.79832303    -0.94360
O347        O  0.53870360  0.69736448  0.81827035    -0.92790
O348        O  0.49324151  0.64226552  0.71754988    -0.93150
O349        O  0.54060984  0.66682310  0.68658942    -0.91930
C350        C  0.56800357  0.70398933  0.81842821     1.17130
H351        H  0.45010819  0.68442778  0.74554183     0.33070
H352        H  0.54314894  0.74440346  0.68979009     0.43920
H353        H  0.53437738  0.75941440  0.81120684     0.37450
H354        H  0.44379320  0.81725948  0.73556001     0.33930
H355        H  0.49425822  0.68459382  0.64248551     0.25720
H356        H  0.48710053  0.85786418  0.68186921     0.31660
H357        H  0.50258089  0.87189349  0.77973397     0.37570
H358        H  0.48331639  0.63243917  0.69972044     0.32020
H359        H  0.49335112  0.64893704  0.81570795     0.30900
H360        H  0.49005659  0.70390903  0.85262103     0.32580
H361        H  0.50304441  0.82246672  0.84426212     0.31550
H362        H  0.55977379  0.67833727  0.69331762     0.35550
H363        H  0.60181535  0.70066491  0.74010659     0.28280
H364        H  0.36243572  0.77074836  0.73673302     0.32520
H365        H  0.45582670  0.85475462  0.81322777     0.35370
H366        H  0.48523380  0.64467301  0.78170104     0.27980
H367        H  0.60330118  0.72532954  0.71356360     0.40850
H368        H  0.51548044  0.77392519  0.64279977     0.30900
H369        H  0.48577695  0.72129633  0.64418969     0.38520
H370        H  0.50116513  0.78506187  0.84503995     0.30370
H371        H  0.45226420  0.84681550  0.68630702     0.30430
H372        H  0.38170760  0.79996783  0.74804741     0.30700
Zr373      Zr  0.23356686  0.81472121  0.00142551     2.17510
O374        O  0.26173080  0.86161244  0.98516536    -0.51660
O375        O  0.19600653  0.84185989  0.03093718    -0.74860
O376        O  0.19759940  0.84509204  0.96551283    -0.81650
O377        O  0.28126929  0.78990334  0.07160912    -0.83390
O378        O  0.17950839  0.80884755  0.93229514    -0.79020
O379        O  0.26586623  0.83433724  0.04366316    -0.90650
O380        O  0.16669880  0.80232768  0.04995922    -0.76610
O381        O  0.18644296  0.78534374  0.99280240    -0.86100
O382        O  0.22871665  0.77772792  0.04211957    -0.85790
O383        O  0.24106291  0.78819201  0.95541298    -0.72550
O384        O  0.28133431  0.78138596  0.00287212    -0.84690
Zr385      Zr  0.23698443  0.68674387  0.98816437     2.26420
Zr386      Zr  0.19482145  0.75681242  0.94864274     2.06270
Zr387      Zr  0.27539419  0.74354951  0.04260146     2.10050
Zr388      Zr  0.18227910  0.74887905  0.03322235     1.78760
O389        O  0.33243152  0.74637275  0.03514838    -0.93490
O390        O  0.12571391  0.75326425  0.01869441    -0.41300
O391        O  0.22855105  0.71346090  0.03435653    -0.77930
O392        O  0.18882769  0.71944939  0.98846638    -0.96620
O393        O  0.24153705  0.72398231  0.94818287    -0.89920
O394        O  0.28394130  0.71705715  0.99732418    -0.92760
C395        C  0.17390779  0.83196084  0.04699393     1.00990
C396        C  0.27913118  0.82004877  0.06689942     1.13920
C397        C  0.18132725  0.83708725  0.94198697     1.04700
O398        O  0.13683369  0.75937576  0.94259882    -0.94920
O399        O  0.17630472  0.71013243  0.92567583    -0.90660
O400        O  0.21014730  0.66949897  0.94166376    -0.83810
C401        C  0.18907193  0.68232058  0.92296508     1.11340
O402        O  0.31783624  0.80156369  0.94631688    -0.96890
Zr403      Zr  0.28778254  0.75394505  0.95714320     1.88940
O404        O  0.27235916  0.66212098  0.95489947    -0.73540
O405        O  0.20301045  0.76063395  0.89537312    -0.52800
O406        O  0.28214278  0.76529753  0.90379384    -0.97480
O407        O  0.34528907  0.74571571  0.96579152    -0.54700
O408        O  0.30056064  0.70262381  0.93559896    -0.74060
C409        C  0.29233679  0.67328043  0.93714020     0.98290
O410        O  0.21044443  0.63914439  0.00502485    -0.62880
O411        O  0.29027844  0.73205888  0.09502018    -0.57680
O412        O  0.27859789  0.65778768  0.01837667    -0.94360
O413        O  0.27358701  0.68810537  0.05798861    -0.92790
O414        O  0.18620354  0.74293184  0.08724583    -0.93150
O415        O  0.15266062  0.70435702  0.05247857    -0.91930
C416        C  0.28839757  0.66615914  0.04432150     1.17130
H417        H  0.22604604  0.78838297  0.06074851     0.33070
H418        H  0.17045260  0.70656611  0.98465191     0.43920
H419        H  0.30335321  0.70395069  0.99862839     0.37450
H420        H  0.24238411  0.80378584  0.93938739     0.33930
H421        H  0.11483089  0.75627688  0.03759860     0.25720
H422        H  0.18202140  0.76787123  0.88630671     0.31660
H423        H  0.30296209  0.75862422  0.89593710     0.37570
H424        H  0.16752103  0.75532640  0.09422248     0.32020
H425        H  0.30931855  0.74464400  0.09995261     0.30900
H426        H  0.33987037  0.76279637  0.04919235     0.32580
H427        H  0.35351037  0.74167267  0.94584136     0.31550
H428        H  0.16331200  0.68500452  0.04450683     0.35550
H429        H  0.21076667  0.64082355  0.02696583     0.28280
H430        H  0.24721497  0.88010160  0.98912699     0.32520
H431        H  0.33050116  0.79639611  0.92885650     0.35370
H432        H  0.27296483  0.74180261  0.10651601     0.27980
H433        H  0.18777519  0.64309389  0.99860739     0.40850
H434        H  0.12995329  0.77876657  0.95329467     0.30900
H435        H  0.12292589  0.77434808  0.00825425     0.38520
H436        H  0.34825826  0.72480356  0.97648689     0.30370
H437        H  0.21679637  0.77918366  0.89277765     0.30430
H438        H  0.26146278  0.86036557  0.96319240     0.30700
Zr439      Zr  0.99176197  0.52696489  0.93020925     2.17510
O440        O  0.96313076  0.51087378  0.88503106    -0.51660
O441        O  0.02926363  0.56016128  0.90741588    -0.74860
O442        O  0.96231145  0.57634919  0.91246536    -0.81650
O443        O  0.05564287  0.45832972  0.93978854    -0.83390
O444        O  0.94698009  0.60418731  0.95280536    -0.79020
O445        O  0.03114521  0.49159909  0.90447539    -0.90650
O446        O  0.06354785  0.57675026  0.94418752    -0.76610
O447        O  0.99684001  0.56944505  0.96452262    -0.86100
O448        O  0.03872117  0.51722475  0.96051196    -0.85790
O449        O  0.94457630  0.52681939  0.95913980    -0.72550
O450        O  0.98248524  0.47664163  0.95463040    -0.84690
Zr451      Zr  0.99134155  0.50764954  0.04963189     2.26420
Zr452      Zr  0.95178517  0.56838880  0.99467730     2.06270
Zr453      Zr  0.02998933  0.46786564  0.98491628     2.10050
Zr454      Zr  0.04430055  0.55980675  0.99356194     1.78760
O455        O  0.02422742  0.41362114  0.96680370    -0.93490
O456        O  0.03982695  0.61817873  0.99444890    -0.41300
O457        O  0.03788206  0.50948075  0.02002666    -0.77930
O458        O  0.99922831  0.55893096  0.02532656    -0.96620
O459        O  0.94430141  0.51906667  0.01969704    -0.89920
O460        O  0.98443209  0.46627118  0.01445559    -0.92760
C461        C  0.05397360  0.57471883  0.91653464     1.00990
C462        C  0.05236205  0.46965395  0.91333212     1.13920
C463        C  0.94999139  0.60131653  0.92489345     1.04700
O464        O  0.95871977  0.62122073  0.01567093    -0.94920
O465        O  0.92285322  0.57112073  0.03930343    -0.90660
O466        O  0.94782845  0.53842491  0.07470287    -0.83810
C467        C  0.92531482  0.55897769  0.06565738     1.11340
O468        O  0.90602641  0.45713826  0.94370969    -0.96890
Zr469      Zr  0.93707529  0.47738077  0.98595561     1.88940
O470        O  0.95564541  0.47305807  0.07263340    -0.73540
O471        O  0.89525883  0.57888470  0.98182914    -0.52800
O472        O  0.88228278  0.49871892  0.98482541    -0.97480
O473        O  0.93739146  0.41898572  0.98347740    -0.54700
O474        O  0.91963739  0.46127291  0.03582024    -0.74060
C475        C  0.92961889  0.46101611  0.06343392     0.98290
O476        O  0.01912285  0.52588139  0.09445735    -0.62880
O477        O  0.08665667  0.46193046  0.99864606    -0.57680
O478        O  0.02285538  0.45808656  0.06739057    -0.94360
O479        O  0.03699265  0.43226615  0.02561539    -0.92790
O480        O  0.10070252  0.54389640  0.99658794    -0.93150
O481        O  0.07322155  0.58076146  0.03663629    -0.91930
C482        C  0.03547410  0.43395056  0.05365452     1.17130
H483        H  0.05790506  0.51628566  0.94951191     0.33070
H484        H  0.00106624  0.57540544  0.04004791     0.43920
H485        H  0.98168537  0.44568375  0.02397409     0.37450
H486        H  0.92604384  0.53175286  0.94619479     0.33930
H487        H  0.06151565  0.62534003  0.99045986     0.25720
H488        H  0.89165837  0.60210375  0.98515449     0.31660
H489        H  0.86983126  0.48132376  0.99338359     0.37570
H490        H  0.11148610  0.56173198  0.98676281     0.32020
H491        H  0.09356205  0.44131603  0.98999156     0.30900
H492        H  0.04489990  0.40237445  0.97212228     0.32580
H493        H  0.93736142  0.41114868  0.00439338     0.31550
H494        H  0.06616322  0.56786111  0.05370119     0.35550
H495        H  0.04202214  0.52248063  0.09059412     0.28280
H496        H  0.96968549  0.52612158  0.86947407     0.32520
H497        H  0.88844814  0.44529587  0.95234922     0.35370
H498        H  0.09681253  0.47843929  0.98648714     0.27980
H499        H  0.01564070  0.54948772  0.09380386     0.40850
H500        H  0.97366173  0.63187993  0.00255050     0.30900
H501        H  0.02693615  0.62451214  0.97620110     0.38520
H502        H  0.95890172  0.41284969  0.97686061     0.30370
H503        H  0.89272523  0.57668268  0.95998921     0.30430
H504        H  0.94054253  0.51698854  0.88816315     0.30700
Zr505      Zr  0.24910363  0.00069939  0.68305208     2.17510
O506        O  0.22343909  0.02467650  0.63803943    -0.51660
O507        O  0.28527602  0.96492315  0.66037094    -0.74860
O508        O  0.29252898  0.03378258  0.66132436    -0.81650
O509        O  0.19156443  0.93290916  0.69987886    -0.83390
O510        O  0.31382716  0.06259229  0.69914071    -0.79020
O511        O  0.21561423  0.95698432  0.66126628    -0.90650
O512        O  0.31414169  0.93716788  0.69702246    -0.76610
O513        O  0.29570044  0.00289213  0.71474665    -0.86100
O514        O  0.25197843  0.95465455  0.71561396    -0.85790
O515        O  0.24221421  0.04952671  0.71018353    -0.72550
O516        O  0.20200518  0.00443533  0.71202358    -0.84690
Zr517      Zr  0.24572412  0.00890375  0.80442642     2.26420
Zr518      Zr  0.28836117  0.04972002  0.74284463     2.06270
Zr519      Zr  0.20642273  0.95847766  0.74485609     2.10050
Zr520      Zr  0.29869579  0.95680798  0.74626994     1.78760
O521        O  0.14866556  0.96127231  0.73715544    -0.93490
O522        O  0.35556601  0.96640637  0.74534121    -0.41300
O523        O  0.25290920  0.95983332  0.77709722    -0.77930
O524        O  0.29312697  0.00429188  0.77585114    -0.96620
O525        O  0.24313724  0.05468171  0.77211252    -0.89920
O526        O  0.19968569  0.00618999  0.77167807    -0.92760
C527        C  0.30626473  0.94375095  0.66939885     1.00990
C528        C  0.19726045  0.93561050  0.67236100     1.13920
C529        C  0.31253890  0.05425806  0.67218278     1.04700
O530        O  0.34570928  0.05400695  0.75146966    -0.94920
O531        O  0.30455413  0.07493612  0.78638470    -0.90660
O532        O  0.27579156  0.05607879  0.82425317    -0.83810
C533        C  0.29582165  0.07563931  0.81295367     1.11340
O534        O  0.17065427  0.08219730  0.69891790    -0.96890
Zr535      Zr  0.19664458  0.05242546  0.74096382     1.88940
O536        O  0.20827713  0.04264695  0.82832846    -0.73540
O537        O  0.27709371  0.10723323  0.73650434    -0.52800
O538        O  0.20585975  0.10957909  0.74495897    -0.97480
O539        O  0.13947075  0.04441958  0.73501361    -0.54700
O540        O  0.17638861  0.06437336  0.79065773    -0.74060
C541        C  0.18365111  0.05901789  0.81861831     0.98290
O542        O  0.27258896  0.98461478  0.84871716    -0.62880
O543        O  0.21156480  0.90081617  0.75460087    -0.57680
O544        O  0.20067759  0.97914373  0.82629962    -0.94360
O545        O  0.18484596  0.94399113  0.79124302    -0.92790
O546        O  0.29111144  0.89931230  0.75072466    -0.93150
O547        O  0.32943374  0.93188043  0.78820037    -0.91930
C548        C  0.18183104  0.95726739  0.81636347     1.17130
H549        H  0.25258134  0.93477151  0.70498618     0.33070
H550        H  0.31183959  0.00595472  0.78892315     0.43920
H551        H  0.17975306  0.00594021  0.78151463     0.37450
H552        H  0.24165467  0.06766343  0.69646985     0.33930
H553        H  0.36563596  0.94517341  0.74143773     0.25720
H554        H  0.29816319  0.11710597  0.73855328     0.31660
H555        H  0.18868665  0.11791152  0.75743554     0.37570
H556        H  0.30917164  0.88931563  0.74039772     0.32020
H557        H  0.19001965  0.89276404  0.75001124     0.30900
H558        H  0.14210983  0.93886908  0.73986850     0.32580
H559        H  0.12929430  0.06341820  0.74405709     0.31550
H560        H  0.31852305  0.93952669  0.80595922     0.35550
H561        H  0.26958142  0.96131136  0.84659609     0.28280
H562        H  0.23728464  0.01780695  0.62188388     0.32520
H563        H  0.15722536  0.09923723  0.70767774     0.35370
H564        H  0.22475866  0.89238447  0.73858147     0.27980
H565        H  0.29556427  0.98733714  0.84564330     0.40850
H566        H  0.35523565  0.03483385  0.74220038     0.30900
H567        H  0.35800256  0.97895097  0.72671452     0.38520
H568        H  0.13528343  0.02643152  0.74881809     0.30370
H569        H  0.27020787  0.11083924  0.71538546     0.30430
H570        H  0.22683654  0.04795414  0.63979307     0.30700
Zr571      Zr  0.75590270  0.75673016  0.55084941     2.17510
O572        O  0.73352218  0.73066009  0.59374153    -0.51660
O573        O  0.79174516  0.79047642  0.57686428    -0.74860
O574        O  0.79991889  0.72295319  0.57281704    -0.81650
O575        O  0.69563138  0.82774182  0.53989173    -0.83390
O576        O  0.82480787  0.70109913  0.53373865    -0.79020
O577        O  0.72607473  0.79969098  0.57531251    -0.90650
O578        O  0.81217250  0.82303290  0.54165980    -0.76610
O579        O  0.79989862  0.75832309  0.51941673    -0.86100
O580        O  0.75065095  0.80433099  0.52081818    -0.85790
O581        O  0.75322834  0.70909922  0.52175225    -0.72550
O582        O  0.70515014  0.75270850  0.52462504    -0.84690
Zr583      Zr  0.73985627  0.75657628  0.43170911     2.26420
Zr584      Zr  0.79592691  0.71344819  0.48814983     2.06270
Zr585      Zr  0.70093083  0.80044898  0.49417058     2.10050
Zr586      Zr  0.79449773  0.80627233  0.49063404     1.78760
O587        O  0.64675341  0.79610574  0.51076817    -0.93490
O588        O  0.85214405  0.79756975  0.49030905    -0.41300
O589        O  0.74455484  0.80370780  0.46166316    -0.77930
O590        O  0.79121589  0.76127763  0.45768482    -0.96620
O591        O  0.74580038  0.71055144  0.46290945    -0.89920
O592        O  0.69707856  0.75396478  0.46483340    -0.92760
C593        C  0.80843201  0.81394484  0.56903031     1.00990
C594        C  0.70736659  0.82346993  0.56636875     1.13920
C595        C  0.82214321  0.70578811  0.56135748     1.04700
O596        O  0.84615667  0.72179551  0.46434966    -0.94920
O597        O  0.77417927  0.67951297  0.45066675    -0.90660
O598        O  0.77150532  0.71137025  0.41010784    -0.83810
C599        C  0.77908342  0.68417419  0.42328563     1.11340
O600        O  0.68443469  0.67657169  0.53643561    -0.96890
Zr601      Zr  0.70298088  0.70627696  0.49363483     1.88940
O602        O  0.70441706  0.72206472  0.40613008    -0.73540
O603        O  0.82022907  0.65933428  0.49048963    -0.52800
O604        O  0.71734990  0.64944843  0.48990585    -0.97480
O605        O  0.64522209  0.71089649  0.49744095    -0.54700
O606        O  0.68304733  0.69242677  0.44278274    -0.74060
C607        C  0.68595546  0.70055039  0.41502787     0.98290
O608        O  0.75976631  0.78296156  0.38783503    -0.62880
O609        O  0.69567010  0.85723894  0.48051484    -0.57680
O610        O  0.69264985  0.78878294  0.41156618    -0.94360
O611        O  0.66746755  0.81055686  0.45076513    -0.92790
O612        O  0.78271529  0.86388056  0.48998079    -0.93150
O613        O  0.81740105  0.83548427  0.44978730    -0.91930
C614        C  0.66932075  0.80452473  0.42321072     1.17130
H615        H  0.75196178  0.82383834  0.53184256     0.33070
H616        H  0.80760934  0.76228869  0.44330684     0.43920
H617        H  0.67660970  0.75285986  0.45446993     0.37450
H618        H  0.75662023  0.69018709  0.53439087     0.33930
H619        H  0.86092110  0.81761787  0.49815429     0.25720
H620        H  0.84323249  0.66169691  0.49542695     0.31660
H621        H  0.69891814  0.64013746  0.47912518     0.37570
H622        H  0.80058983  0.87302615  0.50170891     0.32020
H623        H  0.67735006  0.86555482  0.49158150     0.30900
H624        H  0.63639182  0.81739005  0.50607937     0.32580
H625        H  0.63665539  0.69490315  0.48350568     0.31550
H626        H  0.80489060  0.82904555  0.43185439     0.35550
H627        H  0.75789258  0.80613967  0.39208069     0.28280
H628        H  0.74856425  0.73508218  0.61060202     0.32520
H629        H  0.67074766  0.65978959  0.52806669     0.35370
H630        H  0.71452477  0.86691903  0.49022609     0.27980
H631        H  0.78300965  0.77793003  0.38894576     0.40850
H632        H  0.86231630  0.72173637  0.48103847     0.30900
H633        H  0.85728617  0.78131100  0.50627653     0.38520
H634        H  0.63876115  0.73191424  0.48807443     0.30370
H635        H  0.81167713  0.64865210  0.50817182     0.30430
H636        H  0.73664805  0.70740814  0.59031587     0.30700
Zr637      Zr  0.98771640  0.68521614  0.25019520     2.17510
O638        O  0.01229973  0.63698208  0.23025489    -0.51660
O639        O  0.95148387  0.66098593  0.28312559    -0.74860
O640        O  0.02139266  0.66062222  0.29196777    -0.81650
O641        O  0.94490575  0.69345930  0.17956609    -0.83390
O642        O  0.04544573  0.70212532  0.31468297    -0.79020
O643        O  0.94641085  0.66048272  0.21958364    -0.90650
O644        O  0.92137476  0.70266839  0.29907863    -0.76610
O645        O  0.98319507  0.72060280  0.29068023    -0.86100
O646        O  0.94048878  0.71895707  0.24159831    -0.85790
O647        O  0.03516327  0.71560371  0.24923994    -0.72550
O648        O  0.99452206  0.71417786  0.20383849    -0.84690
Zr649      Zr  0.99025247  0.81310091  0.23733786     2.26420
Zr650      Zr  0.02962417  0.75096843  0.28981760     2.06270
Zr651      Zr  0.94718388  0.74777834  0.19632005     2.10050
Zr652      Zr  0.93685567  0.75423983  0.28177103     1.78760
O653        O  0.93149432  0.74056381  0.14409079    -0.93490
O654        O  0.94110310  0.75851768  0.33574512    -0.41300
O655        O  0.94197895  0.78410675  0.23638937    -0.77930
O656        O  0.98291623  0.78535681  0.28326674    -0.96620
O657        O  0.03752540  0.78049010  0.24528791    -0.89920
O658        O  0.99407431  0.77819773  0.19619137    -0.92760
C659        C  0.92877174  0.67277990  0.29803908     1.00990
C660        C  0.93395434  0.67019731  0.19433804     1.13920
C661        C  0.04011339  0.67247905  0.31220355     1.04700
O662        O  0.03363091  0.75276086  0.34405571    -0.94920
O663        O  0.03601100  0.80235058  0.30974843    -0.90660
O664        O  0.03356289  0.83440925  0.26886388    -0.83810
C665        C  0.04556664  0.82585030  0.29477088     1.11340
O666        O  0.07188286  0.69923087  0.18937902    -0.96890
Zr667      Zr  0.04096284  0.74649352  0.20392805     1.88940
O668        O  0.02407179  0.83953545  0.20503459    -0.73540
O669        O  0.08691266  0.75200973  0.28380695    -0.52800
O670        O  0.09845334  0.75049542  0.21202757    -0.97480
O671        O  0.03307492  0.74017681  0.15034104    -0.54700
O672        O  0.05552304  0.80022817  0.18567525    -0.74060
C673        C  0.04632346  0.82985143  0.18874668     0.98290
O674        O  0.96580142  0.86169399  0.25674289    -0.62880
O675        O  0.89027082  0.75515922  0.20440128    -0.57680
O676        O  0.95966043  0.83676289  0.19458919    -0.94360
O677        O  0.94058377  0.79622580  0.16652059    -0.92790
O678        O  0.87985799  0.75461817  0.26912197    -0.93150
O679        O  0.90820948  0.80101070  0.30027026    -0.91930
C680        C  0.94535721  0.82586700  0.17117268     1.17130
H681        H  0.92117508  0.70704440  0.24062883     0.33070
H682        H  0.98052345  0.80043987  0.29910879     0.43920
H683        H  0.99623925  0.78945406  0.17750071     0.37450
H684        H  0.05351996  0.70121091  0.25267591     0.33930
H685        H  0.92069644  0.75061321  0.34276544     0.25720
H686        H  0.09610189  0.73889970  0.30076268     0.31660
H687        H  0.10611944  0.75844342  0.19280381     0.37570
H688        H  0.86954507  0.75257543  0.28842258     0.32020
H689        H  0.88017593  0.76100692  0.18467388     0.30900
H690        H  0.90910885  0.74873299  0.14159698     0.32580
H691        H  0.03677286  0.76157812  0.14149195     0.31550
H692        H  0.91628132  0.81936402  0.28888683     0.35550
H693        H  0.94265751  0.85963172  0.25236819     0.28280
H694        H  0.00629045  0.61943548  0.24383755     0.32520
H695        H  0.08295936  0.70584462  0.17136454     0.35370
H696        H  0.88235833  0.73368904  0.20921430     0.27980
H697        H  0.96838058  0.85903356  0.27864504     0.40850
H698        H  0.05591977  0.74629316  0.35005258     0.30900
H699        H  0.95721235  0.74172831  0.34241526     0.38520
H700        H  0.00987793  0.73732127  0.14707849     0.30370
H701        H  0.09120540  0.73880406  0.26635144     0.30430
H702        H  0.03546891  0.63917648  0.23440032     0.30700
Zr703      Zr  0.48532324  0.00970142  0.93722767     2.17510
O704        O  0.46173371  0.98793629  0.89187849    -0.51660
O705        O  0.52165056  0.04524326  0.91536749    -0.74860
O706        O  0.45320235  0.05508658  0.91459885    -0.81650
O707        O  0.55722640  0.95196423  0.95309765    -0.83390
O708        O  0.42371514  0.07505162  0.95178114    -0.79020
O709        O  0.52962194  0.97894503  0.91508443    -0.90650
O710        O  0.54608341  0.07248137  0.95285979    -0.76610
O711        O  0.48019145  0.05373391  0.96959393    -0.86100
O712        O  0.53078079  0.00831931  0.97064132    -0.85790
O713        O  0.43633729  0.00285268  0.96256926    -0.72550
O714        O  0.48334960  0.95901836  0.96345841    -0.84690
Zr715      Zr  0.47916746  0.99583675  0.05526195     2.26420
Zr716      Zr  0.43368685  0.04596768  0.99700281     2.06270
Zr717      Zr  0.52897173  0.95864139  0.99724564     2.10050
Zr718      Zr  0.52657530  0.05340797  0.00110947     1.78760
O719        O  0.53255728  0.90289314  0.98222761    -0.93490
O720        O  0.51311828  0.11072284  0.99955679    -0.41300
O721        O  0.52729185  0.00351719  0.02951437    -0.77930
O722        O  0.47989797  0.04710923  0.02988630    -0.96620
O723        O  0.43332791  0.99647932  0.02284214    -0.89920
O724        O  0.48136858  0.95156540  0.02272957    -0.92760
C725        C  0.54148253  0.06548321  0.92517788     1.00990
C726        C  0.55312116  0.96088853  0.92593382     1.13920
C727        C  0.43285305  0.07520718  0.92521986     1.04700
O728        O  0.43286416  0.09885297  0.01908116    -0.94920
O729        O  0.39996432  0.03057059  0.03633561    -0.90660
O730        O  0.43461403  0.02703364  0.07589831    -0.83810
C731        C  0.40668580  0.03390880  0.06394003     1.11340
O732        O  0.41250693  0.92755404  0.94685173    -0.96890
Zr733      Zr  0.43548250  0.95314633  0.99067776     1.88940
O734        O  0.44498962  0.95893197  0.07700870    -0.73540
O735        O  0.37687350  0.05747158  0.98672228    -0.52800
O736        O  0.37829431  0.96523673  0.98548983    -0.97480
O737        O  0.44528418  0.89517317  0.99013674    -0.54700
O738        O  0.41620202  0.93573156  0.03956540    -0.74060
C739        C  0.42372562  0.94023531  0.06733399     0.98290
O740        O  0.50165488  0.01699108  0.10133511    -0.62880
O741        O  0.58477660  0.96118325  0.01385767    -0.57680
O742        O  0.51313782  0.95228642  0.07835634    -0.94360
O743        O  0.53839164  0.92639429  0.04141388    -0.92790
O744        O  0.58440254  0.04723817  0.00698048    -0.93150
O745        O  0.54821045  0.07950084  0.04513442    -0.91930
C746        C  0.53074162  0.92925841  0.06840735     1.17130
H747        H  0.55057888  0.00999418  0.96068622     0.33070
H748        H  0.47811566  0.06414290  0.04403050     0.43920
H749        H  0.48107259  0.93122220  0.03324828     0.37450
H750        H  0.41832349  0.00449402  0.94845441     0.33930
H751        H  0.53326457  0.12103081  0.99487379     0.25720
H752        H  0.37453166  0.08064168  0.98154894     0.31660
H753        H  0.36843379  0.94832399  0.99741224     0.37570
H754        H  0.59249241  0.06745602  0.99877219     0.32020
H755        H  0.59475679  0.94074453  0.00746353     0.30900
H756        H  0.55452548  0.89540269  0.98839109     0.32580
H757        H  0.43703395  0.88687420  0.00898149     0.31550
H758        H  0.54327578  0.06502853  0.06190795     0.35550
H759        H  0.52503018  0.01495917  0.09932923     0.28280
H760        H  0.46873711  0.00219926  0.87573569     0.32520
H761        H  0.39553314  0.91395369  0.95427019     0.35370
H762        H  0.59357563  0.97776938  0.00079059     0.27980
H763        H  0.49677374  0.04037215  0.09978269     0.40850
H764        H  0.43844398  0.11360404  0.00273972     0.30900
H765        H  0.49927565  0.11419604  0.98132230     0.38520
H766        H  0.46872630  0.89208997  0.99267291     0.30370
H767        H  0.37155560  0.04622318  0.96807611     0.30430
H768        H  0.43858169  0.99289866  0.89292149     0.30700
C769        C  0.24632063  0.95454652  0.28626590     0.02800
C770        C  0.25732530  0.98486245  0.29211855    -0.13350
C771        C  0.28338847  0.99651362  0.27762026     0.00300
C772        C  0.29684723  0.97806683  0.25491698    -0.11870
C773        C  0.28530906  0.94746355  0.24838336     0.02800
C774        C  0.26035575  0.93579081  0.26449037    -0.11290
H775        H  0.24675148  0.99843427  0.30966217     0.08390
H776        H  0.31722054  0.98665944  0.24351513     0.05920
H777        H  0.25193922  0.91197520  0.26013849     0.05770
C778        C  0.43350472  0.79136957  0.24771772     0.02800
C779        C  0.46327155  0.80091586  0.25896729    -0.13350
C780        C  0.47445401  0.79202743  0.28791186     0.00300
C781        C  0.45840741  0.76818490  0.30345849    -0.11870
C782        C  0.43017489  0.75549177  0.29108531     0.02800
C783        C  0.41739927  0.76792987  0.26363270    -0.11290
H784        H  0.47623421  0.81808702  0.24622578     0.08390
H785        H  0.46661066  0.76101044  0.32584642     0.05920
H786        H  0.39395174  0.76088137  0.25581512     0.05770
C787        C  0.35846471  0.66811690  0.36839468    -0.02810
C788        C  0.41992256  0.98145814  0.43180771     0.02800
C789        C  0.44690584  0.96760591  0.41879787    -0.13350
C790        C  0.46091145  0.93794978  0.42892432     0.00300
C791        C  0.44943920  0.92329977  0.45470201    -0.11870
C792        C  0.42214759  0.93565232  0.46859402     0.02800
C793        C  0.40749365  0.96484605  0.45660685    -0.11290
H794        H  0.45685703  0.97992177  0.40017565     0.08390
H795        H  0.46212808  0.90222438  0.46387909     0.05920
H796        H  0.38637446  0.97465029  0.46660685     0.05770
C797        C  0.28993343  0.76992482  0.43394488     0.02800
C798        C  0.26458802  0.78629795  0.41730877    -0.13350
C799        C  0.24849384  0.81383286  0.42790388     0.00300
C800        C  0.25941360  0.82602048  0.45527672    -0.11870
C801        C  0.28404781  0.81037225  0.47267890     0.02800
C802        C  0.29827123  0.78197625  0.46212930    -0.11290
H803        H  0.25743287  0.77799738  0.39561919     0.08390
H804        H  0.24936040  0.84840888  0.46288003     0.05920
H805        H  0.31621075  0.76980042  0.47607099     0.05770
C806        C  0.35759427  0.87158482  0.56991785    -0.02810
C807        C  0.15034535  0.89069043  0.35332326    -0.02810
C808        C  0.35682928  0.87303812  0.16107265    -0.02810
C809        C  0.56238090  0.87189565  0.35838752    -0.02810
C810        C  0.35051120  0.08427893  0.35610212    -0.02810
Zr811      Zr  0.79858906  0.01092817  0.24409354     2.17510
O812        O  0.84602416  0.98359105  0.26660178    -0.51660
O813        O  0.82445187  0.04448170  0.21113922    -0.74860
O814        O  0.81859433  0.98010842  0.20081940    -0.81650
O815        O  0.78583020  0.08164974  0.29802202    -0.83390
O816        O  0.77501890  0.96193625  0.17536248    -0.79020
O817        O  0.82415433  0.05611743  0.27205526    -0.90650
O818        O  0.78563828  0.07498578  0.18604960    -0.76610
O819        O  0.76297446  0.01332797  0.20138387    -0.86100
O820        O  0.76581542  0.05838463  0.24505640    -0.85790
O821        O  0.76739363  0.96355877  0.24734242    -0.72550
O822        O  0.77097345  0.00515141  0.28961182    -0.84690
Zr823      Zr  0.67016824  0.01010829  0.25272416     2.26420
Zr824      Zr  0.73059421  0.96835863  0.20511748     2.06270
Zr825      Zr  0.73852237  0.05321742  0.28974582     2.10050
Zr826      Zr  0.73157483  0.06091709  0.20263002     1.78760
O827        O  0.75611879  0.04807914  0.34195133    -0.93490
O828        O  0.72791284  0.05295660  0.14909920    -0.41300
O829        O  0.70198746  0.05693725  0.24761235    -0.77930
O830        O  0.69723201  0.01575933  0.20636626    -0.96620
O831        O  0.70267034  0.96292549  0.24936356    -0.89920
O832        O  0.70682186  0.00746569  0.29459939    -0.92760
C833        C  0.81516664  0.06587644  0.19192493     1.00990
C834        C  0.81389638  0.07932135  0.28859514     1.13920
C835        C  0.80481061  0.96584829  0.17853623     1.04700
O836        O  0.71368141  0.96783803  0.15265983    -0.94920
O837        O  0.68083903  0.94590860  0.19311885    -0.90660
O838        O  0.64990348  0.95853288  0.23141530    -0.83810
C839        C  0.65824550  0.93983416  0.21005594     1.11340
O840        O  0.78245858  0.93139850  0.31801814    -0.96890
Zr841      Zr  0.73729639  0.95911454  0.29163584     1.88940
O842        O  0.64488893  0.97713972  0.28754485    -0.73540
O843        O  0.74385872  0.91092840  0.20614816    -0.52800
O844        O  0.74126270  0.90279602  0.27828256    -0.97480
O845        O  0.73603185  0.96204386  0.34568030    -0.54700
O846        O  0.68339369  0.93951107  0.30174092    -0.74060
C847        C  0.65408322  0.95039715  0.29978236     0.98290
O848        O  0.62166952  0.03260462  0.22779748    -0.62880
O849        O  0.72496486  0.11043369  0.28877917    -0.57680
O850        O  0.64983056  0.04476617  0.29375010    -0.94360
O851        O  0.69306776  0.06770367  0.31564010    -0.92790
O852        O  0.73274551  0.11844605  0.21066757    -0.93150
O853        O  0.68636370  0.09149593  0.17950503    -0.91930
C854        C  0.66341093  0.06270409  0.31365024     1.17130
H855        H  0.77727683  0.07793044  0.24368013     0.33070
H856        H  0.68184932  0.01623205  0.18974967     0.43920
H857        H  0.69619763  0.00703492  0.31320881     0.37450
H858        H  0.78142983  0.94487917  0.24600049     0.33930
H859        H  0.73120624  0.07443084  0.14019912     0.25720
H860        H  0.74112612  0.90461389  0.18510536     0.31660
H861        H  0.72736920  0.89164222  0.29209490     0.37570
H862        H  0.74496278  0.12702326  0.19410478     0.32020
H863        H  0.73841925  0.11968803  0.30483162     0.30900
H864        H  0.75066360  0.06919066  0.35044977     0.32580
H865        H  0.71313708  0.96327224  0.35013537     0.31550
H866        H  0.66743798  0.08190769  0.18804952     0.35550
H867        H  0.62614493  0.05550507  0.22436363     0.28280
H868        H  0.86355574  0.99034178  0.25409041     0.32520
H869        H  0.77332523  0.91349457  0.32925283     0.35370
H870        H  0.73347939  0.11878870  0.27010119     0.27980
H871        H  0.62147084  0.02324123  0.20772934     0.40850
H872        H  0.72152933  0.98793350  0.14403396     0.30900
H873        H  0.74757695  0.04039723  0.14484701     0.38520
H874        H  0.74386444  0.98356329  0.35036723     0.30370
H875        H  0.76715293  0.90876395  0.21039175     0.30430
H876        H  0.84335307  0.96069683  0.26197937     0.30700
Zr877      Zr  0.73637947  0.31838824  0.00557453     2.17510
O878        O  0.75857625  0.36857345  0.98901159    -0.51660
O879        O  0.70325891  0.33903951  0.04281007    -0.74860
O880        O  0.69572752  0.34789030  0.97365044    -0.81650
O881        O  0.80113608  0.29789293  0.06406584    -0.83390
O882        O  0.66759946  0.30974221  0.94961543    -0.79020
O883        O  0.77084397  0.34034987  0.04527619    -0.90650
O884        O  0.68230062  0.29688808  0.06741857    -0.76610
O885        O  0.69091297  0.28548231  0.00506212    -0.86100
O886        O  0.74214366  0.28000699  0.04552127    -0.85790
O887        O  0.73620466  0.29306698  0.95814309    -0.72550
O888        O  0.78538783  0.28951993  0.99673187    -0.84690
Zr889      Zr  0.74594919  0.19126598  0.99060648     2.26420
Zr890      Zr  0.69187954  0.25868323  0.95918925     2.06270
Zr891      Zr  0.79006520  0.25118414  0.03675502     2.10050
Zr892      Zr  0.69756582  0.24705563  0.04466871     1.78760
O893        O  0.84592658  0.26116146  0.02898043    -0.93490
O894        O  0.63955632  0.24877561  0.03894284    -0.41300
O895        O  0.74597259  0.21650449  0.03788064    -0.77930
O896        O  0.69658415  0.21968288  0.99858077    -0.96620
O897        O  0.73927105  0.22901504  0.95046856    -0.89920
O898        O  0.79065808  0.22488628  0.99058656    -0.92760
C899        C  0.68677892  0.32682986  0.06305741     1.00990
C900        C  0.79196994  0.32730238  0.06376707     1.13920
C901        C  0.67328139  0.33865576  0.95565070     1.04700
O902        O  0.63513744  0.25023791  0.96363894    -0.94920
O903        O  0.68059519  0.21135590  0.93351562    -0.90660
O904        O  0.71256599  0.16940397  0.95017428    -0.83810
C905        C  0.69099708  0.18242745  0.93212847     1.11340
O906        O  0.80639827  0.31102073  0.93091423    -0.96890
Zr907      Zr  0.78387394  0.26202377  0.95015100     1.88940
O908        O  0.77655718  0.17074895  0.95211182    -0.73540
O909        O  0.68606369  0.26887532  0.90558292    -0.52800
O910        O  0.76662443  0.27121706  0.89818631    -0.97480
O911        O  0.84213073  0.26016840  0.95219506    -0.54700
O912        O  0.79725615  0.21183747  0.92585688    -0.74060
C913        C  0.79256271  0.18201609  0.93113675     0.98290
O914        O  0.72566353  0.14160703  0.01049318    -0.62880
O915        O  0.79860599  0.23615205  0.08921574    -0.57680
O916        O  0.79149495  0.16321086  0.01756286    -0.94360
O917        O  0.81641150  0.20094643  0.04505882    -0.92790
O918        O  0.71121304  0.23797519  0.09738866    -0.93150
O919        O  0.67428750  0.19917858  0.06515955    -0.91930
C920        C  0.81369086  0.17251955  0.03587417     1.17130
H921        H  0.74328088  0.28976239  0.06479400     0.33070
H922        H  0.67899494  0.20533673  0.99746760     0.43920
H923        H  0.81030262  0.21260773  0.98851331     0.37450
H924        H  0.73311570  0.30899969  0.94231841     0.33930
H925        H  0.63212786  0.25214481  0.05928909     0.25720
H926        H  0.66312819  0.27433259  0.90153906     0.31660
H927        H  0.78412936  0.26193678  0.88663957     0.37570
H928        H  0.69230453  0.24610656  0.10772920     0.32020
H929        H  0.81961226  0.24466386  0.09519669     0.30900
H930        H  0.85780584  0.24963583  0.04565998     0.32580
H931        H  0.84811592  0.25142747  0.93281498     0.31550
H932        H  0.68546872  0.18113813  0.05553444     0.35550
H933        H  0.72889140  0.14323110  0.03233907     0.28280
H934        H  0.74310714  0.38550252  0.99487632     0.32520
H935        H  0.81801016  0.30466361  0.91312481     0.35370
H936        H  0.78292515  0.24953963  0.09972994     0.27980
H937        H  0.70224925  0.14379079  0.00690731     0.40850
H938        H  0.62647189  0.27017418  0.97230671     0.30900
H939        H  0.63406996  0.26930077  0.02822362     0.38520
H940        H  0.84879419  0.24304077  0.96689987     0.30370
H941        H  0.69702840  0.28910983  0.90183583     0.30430
H942        H  0.75639127  0.36833319  0.96700859     0.30700
C943        C  0.42589862  0.50188798  0.94506794     0.02800
C944        C  0.41153197  0.48674731  0.96922738    -0.13350
C945        C  0.42617038  0.45916686  0.98385406     0.00300
C946        C  0.45576542  0.44779901  0.97358789    -0.11870
C947        C  0.47077314  0.46331600  0.95003969     0.02800
C948        C  0.45532921  0.49008350  0.93595748    -0.11290
H949        H  0.38829075  0.49561904  0.97548819     0.08390
H950        H  0.46657226  0.42579105  0.98294470     0.05920
H951        H  0.46494965  0.50032587  0.91604688     0.05770
C952        C  0.28523721  0.45619789  0.74586278     0.02800
C953        C  0.26005730  0.44084196  0.75962978    -0.13350
C954        C  0.24606373  0.45445094  0.78457029     0.00300
C955        C  0.26035029  0.48057681  0.79758752    -0.11870
C956        C  0.28164356  0.49887604  0.78197778     0.02800
C957        C  0.29202142  0.48738689  0.75463707    -0.11290
H958        H  0.25222350  0.41786060  0.75200338     0.08390
H959        H  0.25444675  0.48636421  0.82004528     0.05920
H960        H  0.30726569  0.50156763  0.74129586     0.05770
C961        C  0.35385701  0.58667541  0.85509479    -0.02810
C962        C  0.47628760  0.32694160  0.81142641     0.02800
C963        C  0.46413478  0.29861759  0.82440978    -0.13350
C964        C  0.44164383  0.28013734  0.80836522     0.00300
C965        C  0.43216347  0.28965632  0.77934362    -0.11870
C966        C  0.43997887  0.31937159  0.76758650     0.02800
C967        C  0.46369695  0.33683216  0.78283550    -0.11290
H968        H  0.47155618  0.29140252  0.84697431     0.08390
H969        H  0.41694334  0.27426896  0.76642727     0.05920
H970        H  0.47238498  0.35802303  0.77224824     0.05770
C971        C  0.57269994  0.40197907  0.88184834    -0.02810
C972        C  0.36652474  0.38160986  0.66497827    -0.02810
C973        C  0.36359062  0.18212007  0.86531601    -0.02810
C974        C  0.14796139  0.39100482  0.85235688    -0.02810
C975        C  0.24356578  0.31640546  0.92960573     0.02800
C976        C  0.25610453  0.32686289  0.95721453    -0.13350
C977        C  0.28170413  0.31015198  0.97264951     0.00300
C978        C  0.29404209  0.28196128  0.96036400    -0.11870
C979        C  0.28312289  0.27171997  0.93240833     0.02800
C980        C  0.25741298  0.28859957  0.91727225    -0.11290
H981        H  0.24666885  0.34885761  0.96588162     0.08390
H982        H  0.31388647  0.26884625  0.97169429     0.05920
H983        H  0.24941007  0.28116343  0.89532912     0.05770
C984        C  0.35488226  0.37633277  0.06713730    -0.02810
C985        C  0.68892457  0.55260990  0.24375961     0.02800
C986        C  0.71441822  0.56524518  0.22813496    -0.13350
C987        C  0.72840395  0.54799796  0.20479297     0.00300
C988        C  0.71524331  0.51895684  0.19616088    -0.11870
C989        C  0.68905195  0.50692010  0.21041919     0.02800
C990        C  0.67747144  0.52269002  0.23513169    -0.11290
H991        H  0.72268224  0.58889299  0.23326420     0.08390
H992        H  0.72432384  0.50648863  0.17721257     0.05920
H993        H  0.65790818  0.51232054  0.24647865     0.05770
C994        C  0.48927923  0.69634221  0.19072463     0.02800
C995        C  0.49791965  0.72828292  0.18509205    -0.13350
C996        C  0.51922221  0.74391753  0.20469437     0.00300
C997        C  0.52914761  0.72828439  0.23158380    -0.11870
C998        C  0.52346071  0.69592472  0.23647768     0.02800
C999        C  0.50324054  0.68001031  0.21624363    -0.11290
H1000       H  0.48866774  0.74077785  0.16523648     0.08390
H1001       H  0.54477837  0.74013628  0.24737376     0.05920
H1002       H  0.49918389  0.65474936  0.21988864     0.05770
C1003       C  0.60997396  0.62817484  0.32713378    -0.02810
C1004       C  0.51598405  0.56719727  0.05428306     0.02800
C1005       C  0.52869567  0.53825744  0.06645253    -0.13350
C1006       C  0.55259730  0.52020287  0.05315154     0.00300
C1007       C  0.56515246  0.53312740  0.02663960    -0.11870
C1008       C  0.55501317  0.56395568  0.01498752     0.02800
C1009       C  0.53071500  0.58090056  0.02963842    -0.11290
H1010       H  0.51990583  0.52994094  0.08715411     0.08390
H1011       H  0.58326720  0.51981653  0.01519552     0.05920
H1012       H  0.52412282  0.60512433  0.02232870     0.05770
C1013       C  0.61740200  0.41920422  0.13398138    -0.02810
C1014       C  0.40246874  0.62047814  0.11265473    -0.02810
C1015       C  0.67662079  0.74288581  0.07405600     0.02800
C1016       C  0.66554964  0.73340870  0.04542783    -0.13350
C1017       C  0.67968887  0.70654048  0.03133877     0.00300
C1018       C  0.70459378  0.68913415  0.04710981    -0.11870
C1019       C  0.71796847  0.69944325  0.07441669     0.02800
C1020       C  0.70337926  0.72630083  0.08778841    -0.11290
H1021       H  0.64532729  0.74640380  0.03470394     0.08390
H1022       H  0.71300471  0.66651587  0.03847854     0.05920
H1023       H  0.71223272  0.73399625  0.10936213     0.05770
C1024       C  0.62612690  0.63973556  0.92581329    -0.02810
C1025       C  0.60129355  0.83605979  0.14724143    -0.02810
C1026       C  0.82177927  0.61712556  0.13496712    -0.02810
Zr1027     Zr  0.74595202  0.50741335  0.69072753     2.17510
O1028       O  0.71841036  0.53383683  0.64780117    -0.51660
O1029       O  0.77983668  0.47276521  0.66365920    -0.74860
O1030       O  0.79168660  0.53784792  0.66965082    -0.81650
O1031       O  0.69063908  0.43790376  0.70931734    -0.83390
O1032       O  0.81682130  0.56211917  0.70850414    -0.79020
O1033       O  0.71356178  0.46217464  0.67017862    -0.90650
O1034       O  0.81375339  0.44905124  0.69901681    -0.76610
O1035       O  0.79300853  0.51074058  0.72138678    -0.86100
O1036       O  0.75020906  0.46109627  0.72270718    -0.85790
O1037       O  0.73941709  0.55591643  0.71892135    -0.72550
O1038       O  0.69985940  0.51085430  0.72129675    -0.84690
Zr1039     Zr  0.74493379  0.51486939  0.81267758     2.26420
Zr1040     Zr  0.78649853  0.55676336  0.75089237     2.06270
Zr1041     Zr  0.70564494  0.46450378  0.75359810     2.10050
Zr1042     Zr  0.79813002  0.46405996  0.75114443     1.78760
O1043       O  0.64817753  0.46285023  0.74468035    -0.93490
O1044       O  0.85443241  0.47626881  0.75026291    -0.41300
O1045       O  0.75333184  0.46655511  0.78403235    -0.77930
O1046       O  0.79205285  0.51053253  0.78296435    -0.96620
O1047       O  0.74160049  0.56036630  0.78051423    -0.89920
O1048       O  0.69823332  0.51212861  0.78096992    -0.92760
C1049       C  0.80386378  0.45449384  0.67136082     1.00990
C1050       C  0.69609363  0.44029962  0.68174755     1.13920
C1051       C  0.81433199  0.55503030  0.68118878     1.04700
O1052       O  0.84211526  0.56146607  0.76745548    -0.94920
O1053       O  0.79327673  0.58987003  0.79259995    -0.90660
O1054       O  0.76932545  0.56642273  0.83130375    -0.83810
C1055       C  0.78428621  0.59006809  0.81924207     1.11340
O1056       O  0.66232721  0.58384499  0.70967300    -0.96890
Zr1057     Zr  0.69445843  0.55879440  0.75075703     1.88940
O1058       O  0.70846192  0.54889662  0.83780161    -0.73540
O1059       O  0.77846352  0.61287720  0.73547239    -0.52800
O1060       O  0.70463377  0.61585503  0.74664578    -0.97480
O1061       O  0.63739505  0.54997568  0.75198980    -0.54700
O1062       O  0.68109371  0.57853067  0.80132667    -0.74060
C1063       C  0.68820588  0.57098299  0.82905379     0.98290
O1064       O  0.77453129  0.49210769  0.85620409    -0.62880
O1065       O  0.71516489  0.40770483  0.76570980    -0.57680
O1066       O  0.70053725  0.48374781  0.83503857    -0.94360
O1067       O  0.68180880  0.45089758  0.79913781    -0.92790
O1068       O  0.79270297  0.40611673  0.75278253    -0.93150
O1069       O  0.83035628  0.43678859  0.79087164    -0.91930
C1070       C  0.68044195  0.46296096  0.82493500     1.17130
H1071       H  0.75116195  0.44127512  0.71200491     0.33070
H1072       H  0.81093168  0.51205349  0.79584221     0.43920
H1073       H  0.67860846  0.51236178  0.79134978     0.37450
H1074       H  0.73812006  0.57401762  0.70517935     0.33930
H1075       H  0.86514111  0.45609518  0.74410464     0.25720
H1076       H  0.79994601  0.62188286  0.73741133     0.31660
H1077       H  0.68985887  0.62628244  0.76038099     0.37570
H1078       H  0.80894551  0.39771962  0.73933597     0.32020
H1079       H  0.69392896  0.39820733  0.76330259     0.30900
H1080       H  0.64302520  0.44031022  0.74910161     0.32580
H1081       H  0.63220230  0.55149563  0.77319188     0.31550
H1082       H  0.82244926  0.44606710  0.80938529     0.35550
H1083       H  0.77698118  0.46896185  0.85198916     0.28280
H1084       H  0.72908356  0.52477815  0.63047208     0.32520
H1085       H  0.64970054  0.60138155  0.71861500     0.35370
H1086       H  0.72718835  0.39918112  0.74895032     0.27980
H1087       H  0.79626175  0.50034233  0.85467550     0.40850
H1088       H  0.85343163  0.54276500  0.75904865     0.30900
H1089       H  0.85591529  0.49100916  0.73289230     0.38520
H1090       H  0.63525145  0.52701354  0.74743225     0.30370
H1091       H  0.77317285  0.61311162  0.71385346     0.30430
H1092       H  0.72523996  0.55631165  0.64851245     0.30700
Zr1093     Zr  0.99082317  0.01386482  0.43371575     2.17510
O1094       O  0.95967644  0.99562475  0.39079926    -0.51660
O1095       O  0.02585380  0.04705509  0.40814069    -0.74860
O1096       O  0.96241548  0.06371310  0.41565594    -0.81650
O1097       O  0.05689974  0.95019945  0.44183554    -0.83390
O1098       O  0.94663152  0.09036693  0.45655820    -0.79020
O1099       O  0.02954110  0.98108121  0.40642153    -0.90650
O1100       O  0.05519580  0.07101423  0.44439712    -0.76610
O1101       O  0.99380933  0.05702642  0.46712634    -0.86100
O1102       O  0.03937488  0.00802810  0.46287455    -0.85790
O1103       O  0.94450359  0.01053383  0.46329330    -0.72550
O1104       O  0.98726522  0.96299796  0.45927601    -0.84690
Zr1105     Zr  0.99483021  0.99774699  0.55254508     2.26420
Zr1106     Zr  0.94951091  0.05358398  0.49767669     2.06270
Zr1107     Zr  0.03560125  0.95858440  0.48901864     2.10050
Zr1108     Zr  0.04235871  0.05181433  0.49488086     1.78760
O1109       O  0.02959307  0.90244682  0.47672948    -0.93490
O1110       O  0.03587372  0.10996312  0.49696187    -0.41300
O1111       O  0.04060028  0.00193446  0.52256981    -0.77930
O1112       O  0.99809002  0.04904695  0.52744705    -0.96620
O1113       O  0.94709561  0.00388204  0.52308593    -0.89920
O1114       O  0.99117459  0.95413659  0.51934343    -0.92760
C1115       C  0.04733771  0.06607748  0.41674041     1.00990
C1116       C  0.05174397  0.96042136  0.41514492     1.13920
C1117       C  0.95017709  0.08827736  0.42865665     1.04700
O1118       O  0.95150150  0.10579801  0.52088538    -0.94920
O1119       O  0.91836817  0.05072272  0.54083857    -0.90660
O1120       O  0.94888856  0.02370804  0.57662521    -0.83810
C1121       C  0.92324695  0.03964592  0.56737017     1.11340
O1122       O  0.91426518  0.93825633  0.44804283    -0.96890
Zr1123     Zr  0.94253317  0.96054929  0.49095781     1.88940
O1124       O  0.96253366  0.95999857  0.57629575    -0.73540
O1125       O  0.89319483  0.06236267  0.48327218    -0.52800
O1126       O  0.88628256  0.97699081  0.49088188    -0.97480
O1127       O  0.94587460  0.90206752  0.48946139    -0.54700
O1128       O  0.92631006  0.94414083  0.54094053    -0.74060
C1129       C  0.93735343  0.94565850  0.56810164     0.98290
O1130       O  0.01936464  0.02062616  0.59694842    -0.62880
O1131       O  0.09340532  0.95348322  0.49650066    -0.57680
O1132       O  0.03166392  0.95468499  0.57306961    -0.94360
O1133       O  0.05208468  0.92994861  0.53305441    -0.92790
O1134       O  0.09930234  0.03898166  0.49366950    -0.93150
O1135       O  0.07274586  0.07381882  0.53657395    -0.91930
C1136       C  0.04879218  0.93266539  0.56088622     1.17130
H1137       H  0.05805581  0.00828295  0.45110388     0.33070
H1138       H  0.99905035  0.06595421  0.54180282     0.43920
H1139       H  0.99160962  0.93376931  0.52994428     0.37450
H1140       H  0.92546434  0.01360632  0.45061101     0.33930
H1141       H  0.05625731  0.11812194  0.49011554     0.25720
H1142       H  0.88945689  0.08591395  0.48370165     0.31660
H1143       H  0.87552171  0.95817861  0.49900063     0.37570
H1144       H  0.10875591  0.05907739  0.48673103     0.32020
H1145       H  0.09942002  0.93253309  0.48797101     0.30900
H1146       H  0.05149666  0.89283638  0.47859161     0.32580
H1147       H  0.92972140  0.89474226  0.50325503     0.31550
H1148       H  0.06522867  0.06237704  0.55430726     0.35550
H1149       H  0.04235615  0.02099311  0.59292701     0.28280
H1150       H  0.96666752  0.00886941  0.37392851     0.32520
H1151       H  0.89662053  0.92609832  0.45617555     0.35370
H1152       H  0.10182750  0.96962396  0.48273045     0.27980
H1153       H  0.01211812  0.04347770  0.59614174     0.40850
H1154       H  0.96836368  0.11709280  0.51057708     0.30900
H1155       H  0.02013806  0.11587826  0.48058423     0.38520
H1156       H  0.96660143  0.89559548  0.49946657     0.30370
H1157       H  0.89110630  0.05700010  0.46196882     0.30430
H1158       H  0.93761493  0.00356554  0.39397731     0.30700
C1159       C  0.69137911  0.04335283  0.74639989     0.02800
C1160       C  0.67894168  0.01658992  0.73228931    -0.13350
C1161       C  0.68795907  0.00945588  0.70375497     0.00300
C1162       C  0.71184404  0.02594171  0.69066141    -0.11870
C1163       C  0.72944454  0.04793724  0.70654777     0.02800
C1164       C  0.71798340  0.05810809  0.73409423    -0.11290
H1165       H  0.66052036  0.00292925  0.74226846     0.08390
H1166       H  0.71630511  0.02148649  0.66758082     0.05920
H1167       H  0.72886581  0.07794800  0.74526732     0.05770
C1168       C  0.56132641  0.23075925  0.69087498     0.02800
C1169       C  0.57522968  0.21570334  0.71692679    -0.13350
C1170       C  0.56209619  0.18827948  0.72984874     0.00300
C1171       C  0.53562401  0.17472533  0.71519502    -0.11870
C1172       C  0.51944369  0.19024778  0.69065005     0.02800
C1173       C  0.53205111  0.21897046  0.67943612    -0.11290
H1174       H  0.59682943  0.22485453  0.72695089     0.08390
H1175       H  0.52791480  0.15155552  0.72268603     0.05920
H1176       H  0.51925148  0.23174616  0.66124756     0.05770
C1177       C  0.55786449  0.00478090  0.55424449     0.02800
C1178       C  0.52861593  0.01816472  0.56287414    -0.13350
C1179       C  0.51789280  0.04898330  0.55336756     0.00300
C1180       C  0.53447879  0.06478681  0.53120923    -0.11870
C1181       C  0.56077896  0.04990388  0.51763032     0.02800
C1182       C  0.57274449  0.01976715  0.53003120    -0.11290
H1183       H  0.51501592  0.00535220  0.57891597     0.08390
H1184       H  0.52730726  0.08925395  0.52506865     0.05920
H1185       H  0.59355948  0.00799440  0.52136568     0.05770
C1186       C  0.69440174  0.18916618  0.51566010     0.02800
C1187       C  0.72148179  0.17220596  0.52836668    -0.13350
C1188       C  0.73825666  0.18366261  0.55348967     0.00300
C1189       C  0.72808556  0.21257116  0.56606885    -0.11870
C1190       C  0.69972356  0.22896611  0.55569941     0.02800
C1191       C  0.68420648  0.21782592  0.52942767    -0.11290
H1192       H  0.72845836  0.14894332  0.52000179     0.08390
H1193       H  0.74153145  0.22104657  0.58522332     0.05920
H1194       H  0.66350267  0.23098517  0.52010314     0.05770
C1195       C  0.61860658  0.12563478  0.41990200    -0.02810
C1196       C  0.42108477  0.11872780  0.62181717    -0.02810
C1197       C  0.63436403  0.32986666  0.62638408    -0.02810
C1198       C  0.63071974  0.90998592  0.63275575    -0.02810
C1199       C  0.82676657  0.10619915  0.63543071    -0.02810
C1200       C  0.62368895  0.11816168  0.83460113    -0.02810
C1201       C  0.05351493  0.70027554  0.73109102     0.02800
C1202       C  0.06681814  0.72442830  0.71385395    -0.13350
C1203       C  0.05145734  0.73675270  0.68734548     0.00300
C1204       C  0.02184954  0.72357138  0.67840349    -0.11870
C1205       C  0.00891242  0.69774273  0.69450876     0.02800
C1206       C  0.02464783  0.68725402  0.72142018    -0.11290
H1207       H  0.09031328  0.73235469  0.72055089     0.08390
H1208       H  0.00916090  0.73262142  0.65858448     0.05920
H1209       H  0.01549324  0.66751969  0.73412745     0.05770
C1210       C  0.91759485  0.62034910  0.62476497    -0.02810
C1211       C  0.23361571  0.69063964  0.54234598     0.02800
C1212       C  0.22046792  0.72004282  0.55136460    -0.13350
C1213       C  0.18915879  0.73010808  0.54264592     0.00300
C1214       C  0.17253727  0.71221158  0.52086567    -0.11870
C1215       C  0.18721653  0.68511152  0.50753268     0.02800
C1216       C  0.21818765  0.67499027  0.51857199    -0.11290
H1217       H  0.23375282  0.73401586  0.56732194     0.08390
H1218       H  0.14795995  0.71898346  0.51481688     0.05920
H1219       H  0.23033027  0.65461131  0.50936245     0.05770
C1220       C  0.05562516  0.50939261  0.55394413     0.02800
C1221       C  0.02848088  0.52278817  0.56692024    -0.13350
C1222       C  0.01053489  0.54807679  0.55240801     0.00300
C1223       C  0.01942499  0.55920631  0.52442078    -0.11870
C1224       C  0.04791264  0.54778320  0.51216861     0.02800
C1225       C  0.06539913  0.52233265  0.52700227    -0.11290
H1226       H  0.02236843  0.51479264  0.58896443     0.08390
H1227       H  0.00513214  0.57829501  0.51330127     0.05920
H1228       H  0.08793013  0.51373818  0.51875816     0.05770
C1229       C  0.20704532  0.49764763  0.70386393     0.02800
C1230       C  0.19742364  0.51243683  0.72972467    -0.13350
C1231       C  0.20655208  0.54374011  0.73648581     0.00300
C1232       C  0.22881163  0.55813211  0.71832693    -0.11870
C1233       C  0.24233272  0.54115840  0.69518471     0.02800
C1234       C  0.23124113  0.51106786  0.68778013    -0.11290
H1235       H  0.18025061  0.50041687  0.74281712     0.08390
H1236       H  0.23434518  0.58309872  0.72041413     0.05920
H1237       H  0.23911263  0.49988109  0.66768115     0.05770
C1238       C  0.13177422  0.41421573  0.62808106    -0.02810
C1239       C  0.11212012  0.61379904  0.41479341    -0.02810
C1240       C  0.13191130  0.62043573  0.81961611    -0.02810
C1241       C  0.32647273  0.61405140  0.61999067    -0.02810
C1242       C  0.12767054  0.82915075  0.61765372    -0.02810
C1243       C  0.78820954  0.50106580  0.28789802     0.02800
C1244       C  0.76168990  0.48602142  0.29868778    -0.13350
C1245       C  0.74758993  0.46091967  0.28309823     0.00300
C1246       C  0.76110998  0.45084484  0.25654528    -0.11870
C1247       C  0.78761854  0.46612193  0.24549326     0.02800
C1248       C  0.80066330  0.49167656  0.26098967    -0.11290
H1249       H  0.75377804  0.49226527  0.32051318     0.08390
H1250       H  0.75261757  0.42972766  0.24565517     0.05920
H1251       H  0.82233805  0.50215151  0.25361159     0.05770
C1252       C  0.85672633  0.58499071  0.37095032    -0.02810
C1253       C  0.66047481  0.38653526  0.35488689    -0.02810
C1254       C  0.80739696  0.32123291  0.46791634     0.02800
C1255       C  0.77840785  0.33258099  0.45396367    -0.13350
C1256       C  0.76790352  0.32190689  0.42590123     0.00300
C1257       C  0.78471059  0.29630819  0.41302462    -0.11870
C1258       C  0.81210005  0.28151819  0.42720833     0.02800
C1259       C  0.82359998  0.29468333  0.45469601    -0.11290
H1260       H  0.76359335  0.34993737  0.46494164     0.08390
H1261       H  0.77683245  0.28835974  0.39122327     0.05920
H1262       H  0.84511400  0.28449266  0.46569460     0.05770
C1263       C  0.86695309  0.38818111  0.57252442    -0.02810
C1264       C  0.97930108  0.44993112  0.44270567     0.02800
C1265       C  0.96153192  0.47557676  0.42861426    -0.13350
C1266       C  0.93598829  0.49068084  0.44279085     0.00300
C1267       C  0.92900700  0.48050714  0.47149463    -0.11870
C1268       C  0.94543563  0.45421855  0.48568210     0.02800
C1269       C  0.97139926  0.43965755  0.47136838    -0.11290
H1270       H  0.96657346  0.48265047  0.40602553     0.08390
H1271       H  0.90954975  0.49236551  0.48227363     0.05920
H1272       H  0.98420690  0.41902933  0.48158554     0.05770
C1273       C  0.94111419  0.31332719  0.23730898     0.02800
C1274       C  0.96602639  0.32889895  0.25272112    -0.13350
C1275       C  0.97903694  0.31643150  0.28021618     0.00300
C1276       C  0.96566805  0.28903300  0.29261260    -0.11870
C1277       C  0.94144762  0.27312850  0.27739054     0.02800
C1278       C  0.93034133  0.28437194  0.24922963    -0.11290
H1279       H  0.97418568  0.35142603  0.24403104     0.08390
H1280       H  0.97271252  0.28103454  0.31507704     0.05920
H1281       H  0.91089635  0.27229224  0.23807304     0.05770
C1282       C  0.06825723  0.38277194  0.36256481    -0.02810
C1283       C  0.85906803  0.39620748  0.15621767    -0.02810
C1284       C  0.87835298  0.18131859  0.35468156    -0.02810
Zr1285     Zr  0.98260117  0.19182090  0.74938295     2.17510
O1286       O  0.00563281  0.14146061  0.73228638    -0.51660
O1287       O  0.94586533  0.16946509  0.78187491    -0.74860
O1288       O  0.01565722  0.16908903  0.79119895    -0.81650
O1289       O  0.94110485  0.19994290  0.67657327    -0.83390
O1290       O  0.02030024  0.21109947  0.82213247    -0.79020
O1291       O  0.94226906  0.16767655  0.71700442    -0.90650
O1292       O  0.91584074  0.21024164  0.80078722    -0.76610
O1293       O  0.97744199  0.22728867  0.78976878    -0.86100
O1294       O  0.93592074  0.22563304  0.74093267    -0.85790
O1295       O  0.03090481  0.22091220  0.75052506    -0.72550
O1296       O  0.99122617  0.21837394  0.70293764    -0.84690
Zr1297     Zr  0.98838228  0.31910484  0.73546260     2.26420
Zr1298     Zr  0.02390567  0.25739281  0.79063261     2.06270
Zr1299     Zr  0.94496832  0.25278357  0.69559181     2.10050
Zr1300     Zr  0.93219121  0.26167238  0.78078555     1.78760
O1301       O  0.94126881  0.25197209  0.64132389    -0.93490
O1302       O  0.93628423  0.26783872  0.83454968    -0.41300
O1303       O  0.94006468  0.29001873  0.73492175    -0.77930
O1304       O  0.97898825  0.29349602  0.78248483    -0.96620
O1305       O  0.03239768  0.28341586  0.74482702    -0.89920
O1306       O  0.99181360  0.28296669  0.69510356    -0.92760
C1307       C  0.92386304  0.18045390  0.79791219     1.00990
C1308       C  0.93061504  0.17640182  0.69109597     1.13920
C1309       C  0.02381910  0.18152884  0.81620267     1.04700
O1310       O  0.01786021  0.28238629  0.83868481    -0.94920
O1311       O  0.05817519  0.30127199  0.79101482    -0.90660
O1312       O  0.03723011  0.34046895  0.75960529    -0.83810
C1313       C  0.05943774  0.32839691  0.77770264     1.11340
O1314       O  0.06502406  0.20152299  0.68625753    -0.96890
Zr1315     Zr  0.03798410  0.24950343  0.70436345     1.88940
O1316       O  0.02332355  0.34240842  0.70195127    -0.73540
O1317       O  0.07870283  0.24232612  0.80585283    -0.52800
O1318       O  0.09422338  0.24668951  0.72034416    -0.97480
O1319       O  0.03487687  0.24826071  0.65011650    -0.54700
O1320       O  0.05823134  0.30182925  0.69080752    -0.74060
C1321       C  0.04898398  0.33157634  0.69114447     0.98290
O1322       O  0.96757331  0.36837490  0.75671880    -0.62880
O1323       O  0.88702250  0.25293868  0.69771062    -0.57680
O1324       O  0.95489787  0.34416551  0.69498387    -0.94360
O1325       O  0.93089791  0.30244843  0.67241091    -0.92790
O1326       O  0.87577360  0.26183785  0.76577655    -0.93150
O1327       O  0.90150993  0.30853348  0.79637044    -0.91930
C1328       C  0.93640153  0.33199890  0.67496729     1.17130
H1329       H  0.91657964  0.21376326  0.73958774     0.33070
H1330       H  0.97790909  0.30912668  0.79800899     0.43920
H1331       H  0.99315282  0.29422329  0.67625176     0.37450
H1332       H  0.04898878  0.20638018  0.75480384     0.33930
H1333       H  0.91508987  0.26215636  0.84150336     0.25720
H1334       H  0.07805460  0.23377774  0.82647964     0.31660
H1335       H  0.10539664  0.25699870  0.70393052     0.37570
H1336       H  0.86532072  0.25231757  0.78302181     0.32020
H1337       H  0.87890288  0.26283039  0.67856565     0.30900
H1338       H  0.91932688  0.25971363  0.63534535     0.32580
H1339       H  0.03550590  0.27095043  0.64334887     0.31550
H1340       H  0.91569005  0.32670669  0.79339055     0.35550
H1341       H  0.94433280  0.36535067  0.75750809     0.28280
H1342       H  0.99934958  0.12512726  0.74699314     0.32520
H1343       H  0.08150494  0.20938570  0.67306510     0.35370
H1344       H  0.88120504  0.23019316  0.69663703     0.27980
H1345       H  0.97543677  0.36736148  0.77779476     0.40850
H1346       H  0.00944534  0.26548130  0.85163705     0.30900
H1347       H  0.95073595  0.24988527  0.84188381     0.38520
H1348       H  0.01279789  0.24200056  0.64502898     0.30370
H1349       H  0.08465642  0.22391225  0.79348832     0.30430
H1350       H  0.02892232  0.14323839  0.73597128     0.30700
C1351       C  0.99059092  0.04589252  0.03549818     0.02800
C1352       C  0.00576808  0.01759471  0.04664145    -0.13350
C1353       C  0.03253623  0.00455656  0.03309872     0.00300
C1354       C  0.04342360  0.01938014  0.00744054    -0.11870
C1355       C  0.02841744  0.04784855  0.99604407     0.02800
C1356       C  0.00144519  0.06060816  0.00967939    -0.11290
H1357       H  0.99929298  0.00801513  0.06807353     0.08390
H1358       H  0.06558995  0.01080707  0.99836553     0.05920
H1359       H  0.99070961  0.08338521  0.00184398     0.05770
C1360       C  0.17796102  0.23189028  0.03808950     0.02800
C1361       C  0.20677038  0.21798247  0.05057083    -0.13350
C1362       C  0.22292582  0.19291232  0.03640802     0.00300
C1363       C  0.21063238  0.18201622  0.00915308    -0.11870
C1364       C  0.18037738  0.19270966  0.99752625     0.02800
C1365       C  0.16497348  0.21878772  0.01157654    -0.11290
H1366       H  0.21592513  0.22557308  0.07210065     0.08390
H1367       H  0.22399455  0.16338383  0.99819703     0.05920
H1368       H  0.14249414  0.22847680  0.00228603     0.05770
C1369       C  0.99442164  0.20813083  0.18466928     0.02800
C1370       C  0.00635804  0.19851315  0.21355955    -0.13350
C1371       C  0.03188979  0.21408639  0.22785926     0.00300
C1372       C  0.04273203  0.24220486  0.21429613    -0.11870
C1373       C  0.03350913  0.25065529  0.18480936     0.02800
C1374       C  0.00911327  0.23371999  0.17016854    -0.11290
H1375       H  0.99708756  0.17744944  0.22411506     0.08390
H1376       H  0.06085907  0.25598545  0.22546814     0.05920
H1377       H  0.00291513  0.23926292  0.14696417     0.05770
C1378       C  0.18082677  0.05948016  0.23525239     0.02800
C1379       C  0.20781881  0.07077831  0.22135275    -0.13350
C1380       C  0.21840263  0.05704226  0.19522828     0.00300
C1381       C  0.20282794  0.03047086  0.18374248    -0.11870
C1382       C  0.17705838  0.01729881  0.19817306     0.02800
C1383       C  0.16705354  0.03134056  0.22463733    -0.11290
H1384       H  0.22014734  0.09110497  0.23022846     0.08390
H1385       H  0.20991722  0.02094245  0.16267330     0.05920
H1386       H  0.14781441  0.02123314  0.23641381     0.05290
C1387       C  0.10868380  0.13897092  0.32120089    -0.02810
C1388       C  0.11356172  0.33174626  0.11061696    -0.02810
C1389       C  0.10990906  0.92690358  0.12118555    -0.02810
C1390       C  0.10333713  0.11771020  0.90905345    -0.02810
C1391       C  0.91141128  0.11835520  0.11777269    -0.02810
C1392       C  0.31093828  0.11737418  0.11806430    -0.02810
C1393       C  0.15173394  0.06423961  0.28308656    -0.26640
C1394       C  0.16486862  0.07898905  0.25839775    -0.14720
C1395       C  0.16181979  0.11256332  0.25567815     0.35910
C1396       C  0.14598446  0.13015766  0.27696555    -0.26090
C1397       C  0.12933983  0.11616905  0.30045731    -0.15330
C1398       C  0.13492035  0.08201663  0.30426267     0.37000
N1399       N  0.12597078  0.06482553  0.33025500    -0.89580
H1400       H  0.15514241  0.03853924  0.28650870     0.18110
H1401       H  0.14880027  0.15528180  0.27484850     0.18100
N1402       N  0.17406301  0.12946546  0.23078698    -0.88610
H1403       H  0.14659755  0.05465547  0.34095191     0.35480
H1404       H  0.11152195  0.04613839  0.32347054     0.40580
H1405       H  0.19045550  0.14587314  0.23886782     0.40200
H1406       H  0.15516271  0.14237470  0.21974804     0.35090
C1407       C  0.17705331  0.96573871  0.17071133    -0.26640
C1408       C  0.15944961  0.99092234  0.18342656    -0.14720
C1409       C  0.12591330  0.99223431  0.17832756     0.35910
C1410       C  0.11161756  0.96993519  0.15984825    -0.26090
C1411       C  0.12949653  0.94751569  0.14351651    -0.15330
C1412       C  0.16263317  0.94393280  0.15121863     0.37000
N1413       N  0.18164454  0.91753286  0.14107077    -0.89580
H1414       H  0.20254651  0.96332403  0.17548974     0.18110
H1415       H  0.08599536  0.97203754  0.15605457     0.18100
N1416       N  0.10562631  0.01732910  0.18917281    -0.88610
H1417       H  0.20140378  0.92667477  0.13083124     0.35480
H1418       H  0.19029051  0.90404153  0.15970773     0.40580
H1419       H  0.11483775  0.03961093  0.18392021     0.40200
H1420       H  0.10377195  0.01448201  0.21210357     0.35090
C1421       C  0.24060388  0.10542487  0.17135042    -0.26640
C1422       C  0.24325748  0.07262738  0.17791514    -0.14720
C1423       C  0.26905011  0.05494173  0.16717462     0.35910
C1424       C  0.28934425  0.06898487  0.14720431    -0.26090
C1425       C  0.28720288  0.10197646  0.13975017    -0.15330
C1426       C  0.26227802  0.12059159  0.15333944     0.37000
N1427       N  0.25699331  0.15466363  0.14912646    -0.89580
H1428       H  0.22109846  0.11958143  0.18004231     0.18110
H1429       H  0.30848766  0.05391147  0.13980395     0.18100
N1430       N  0.27585996  0.02304357  0.17808295    -0.88610
H1431       H  0.23484365  0.15855784  0.13787507     0.35480
H1432       H  0.27356073  0.16520900  0.13611786     0.40580
H1433       H  0.28063221  0.02427548  0.20103976     0.40200
H1434       H  0.29683490  0.01390835  0.16918077     0.35090
C1435       C  0.09893999  0.27691403  0.13503538    -0.26640
C1436       C  0.09684976  0.31099135  0.13535258    -0.14720
C1437       C  0.07767378  0.32408469  0.15825605     0.35910
C1438       C  0.05651442  0.30446344  0.17339099    -0.26090
C1439       C  0.05479217  0.27156523  0.16779672    -0.15330
C1440       C  0.07753504  0.25764968  0.14943162     0.37000
N1441       N  0.07994347  0.22366442  0.14528693    -0.89580
H1442       H  0.11710890  0.26419096  0.12327743     0.18110
H1443       H  0.04150075  0.31499508  0.18988684     0.18100
N1444       N  0.07949016  0.35664409  0.16761273    -0.88610
H1445       H  0.05850589  0.21620174  0.13550212     0.35480
H1446       H  0.08359125  0.21220084  0.16605992     0.40580
H1447       H  0.07365538  0.37257412  0.14999308     0.40200
H1448       H  0.10262662  0.36046451  0.17590212     0.35090
C1449       C  0.03413065  0.18162174  0.27649263    -0.26640
C1450       C  0.04999408  0.19855027  0.25443014    -0.14720
C1451       C  0.08349132  0.20021147  0.25821401     0.35910
C1452       C  0.09914584  0.18564854  0.28323298    -0.26090
C1453       C  0.08522088  0.16191757  0.30080547    -0.15330
C1454       C  0.05106657  0.16414323  0.29992906     0.37000
N1455       N  0.03336080  0.15349925  0.32452659    -0.89580
H1456       H  0.00831800  0.18236770  0.27597477     0.18110
H1457       H  0.12295014  0.19318621  0.28873852     0.18100
N1458       N  0.10220024  0.21524022  0.23616031    -0.88610
H1459       H  0.01399551  0.14078236  0.31627234     0.35480
H1460       H  0.02372606  0.17380796  0.33457735     0.40580
H1461       H  0.10019753  0.20159621  0.21697144     0.40200
H1462       H  0.12643225  0.21440964  0.24266933     0.35090
C1463       C  0.97680354  0.15412466  0.17022975    -0.26640
C1464       C  0.97123517  0.18735091  0.16800314    -0.14720
C1465       C  0.94440672  0.19897093  0.14993249     0.35910
C1466       C  0.92581403  0.17714410  0.13333295    -0.26090
C1467       C  0.93212569  0.14357182  0.13501239    -0.15330
C1468       C  0.95729576  0.13259507  0.15533862     0.37000
N1469       N  0.96406114  0.09909319  0.16047776    -0.89580
H1470       H  0.99696609  0.14429535  0.18367792     0.18110
H1471       H  0.90544375  0.18669099  0.12009886     0.18100
N1472       N  0.93449100  0.23234564  0.14858598    -0.88610
H1473       H  0.96218191  0.09404581  0.18318885     0.35480
H1474       H  0.98759325  0.09389428  0.15492617     0.40580
H1475       H  0.94769958  0.24561754  0.16382101     0.40200
H1476       H  0.91105230  0.23401212  0.15555380     0.35090
C1477       C  0.14936844  0.12496496  0.94831968    -0.26640
C1478       C  0.12622737  0.14009302  0.92855795    -0.14720
C1479       C  0.12131635  0.17421816  0.93329888     0.35910
C1480       C  0.14156161  0.19064878  0.95305616    -0.26090
C1481       C  0.16372182  0.17466962  0.97276643    -0.15330
C1482       C  0.16667130  0.14090164  0.97072800     0.37000
N1483       N  0.18504866  0.12212085  0.99296961    -0.89580
H1484       H  0.15101480  0.09968974  0.94986247     0.18110
H1485       H  0.13782570  0.21636778  0.95449743     0.18100
N1486       N  0.09347402  0.19272865  0.92308886    -0.88610
H1487       H  0.18530712  0.09768147  0.98820434     0.35480
H1488       H  0.17378549  0.12463351  0.01312947     0.40580
H1489       H  0.07270435  0.18123877  0.92848573     0.40200
H1490       H  0.09433995  0.19954250  0.90077836     0.35090
C1491       C  0.11411040  0.28677232  0.07228750    -0.26640
C1492       C  0.13247580  0.30866317  0.08903002    -0.14720
C1493       C  0.16605995  0.30783204  0.08390123     0.35910
C1494       C  0.17961341  0.28297992  0.06697381    -0.26090
C1495       C  0.16132468  0.25906358  0.05378229    -0.15330
C1496       C  0.12795483  0.26149364  0.05639108     0.37000
N1497       N  0.10784705  0.23731218  0.04462766    -0.89580
H1498       H  0.08840704  0.28748199  0.07388337     0.18110
H1499       H  0.20505081  0.28249488  0.06374791     0.18100
N1500       N  0.18672438  0.33225013  0.09453036    -0.88610
H1501       H  0.09083638  0.24844879  0.02984055     0.35480
H1502       H  0.09584820  0.22717580  0.06221937     0.40580
H1503       H  0.18060429  0.35360138  0.08293068     0.40200
H1504       H  0.21055030  0.32686603  0.09013103     0.35090
C1505       C  0.30112961  0.16096431  0.07520291    -0.26640
C1506       C  0.29019204  0.13463025  0.09185356    -0.14720
C1507       C  0.25943194  0.12375749  0.08254939     0.35910
C1508       C  0.23863643  0.14333377  0.06443521    -0.26090
C1509       C  0.24785694  0.17282534  0.05312010    -0.15330
C1510       C  0.28007577  0.18112359  0.05733701     0.37000
N1511       N  0.29234674  0.20939163  0.04378932    -0.89580
H1512       H  0.32583858  0.16722065  0.07701277     0.18110
H1513       H  0.21472311  0.13538625  0.05933115     0.18100
N1514       N  0.24909694  0.09248517  0.09061698    -0.88610
H1515       H  0.29944349  0.22454693  0.06090989     0.35480
H1516       H  0.27474987  0.22202094  0.03079476     0.40580
H1517       H  0.24438679  0.07997114  0.07108344     0.40200
H1518       H  0.22773474  0.09511098  0.10161572     0.35090
C1519       C  0.04739639  0.05494864  0.94506617    -0.26640
C1520       C  0.04473176  0.06681710  0.97356386    -0.14720
C1521       C  0.06010024  0.09513611  0.98096936     0.35910
C1522       C  0.07792385  0.11061232  0.95995745    -0.26090
C1523       C  0.08281226  0.09817169  0.93120240    -0.15330
C1524       C  0.06538883  0.07008644  0.92375749     0.37000
N1525       N  0.06408535  0.05624908  0.89494029    -0.89580
H1526       H  0.03510336  0.03353455  0.93926417     0.18110
H1527       H  0.08765035  0.13300565  0.96691399     0.18100
N1528       N  0.05876232  0.10853692  0.00998874    -0.88610
H1529       H  0.08633559  0.04646756  0.88992894     0.35480
H1530       H  0.05514107  0.07321769  0.87917160     0.40580
H1531       H  0.06666163  0.09102098  0.02580612     0.40200
H1532       H  0.03514898  0.11537377  0.01369478     0.35090
C1533       C  0.07127688  0.93306908  0.07527651    -0.26640
C1534       C  0.09073469  0.94841238  0.09702906    -0.14720
C1535       C  0.09509217  0.98202754  0.09200871     0.35910
C1536       C  0.07524982  0.99923776  0.07130184    -0.26090
C1537       C  0.05464028  0.98381713  0.05169947    -0.15330
C1538       C  0.05492401  0.95010988  0.05179138     0.37000
N1539       N  0.04130286  0.93253494  0.02749718    -0.89580
H1540       H  0.06926402  0.90730606  0.07601055     0.18110
H1541       H  0.07695871  0.02511339  0.06963861     0.18100
N1542       N  0.12088307  0.99891145  0.10556846    -0.88610
H1543       H  0.02406101  0.91759721  0.03554712     0.35480
H1544       H  0.03048202  0.94795054  0.01122691     0.40580
H1545       H  0.11133757  0.01875170  0.11644909     0.40200
H1546       H  0.13497728  0.00755489  0.08875811     0.35090
C1547       C  0.93936145  0.05459759  0.06060803    -0.26640
C1548       C  0.97021152  0.06413676  0.05554911    -0.14720
C1549       C  0.98289980  0.08950675  0.07168547     0.35910
C1550       C  0.96412272  0.10562196  0.09195320    -0.26090
C1551       C  0.93278296  0.09641777  0.09812300    -0.15330
C1552       C  0.92045146  0.07045896  0.08124042     0.37000
N1553       N  0.88849853  0.06033886  0.08414372    -0.89580
H1554       H  0.92977321  0.03472120  0.04832170     0.18110
H1555       H  0.97430280  0.12649970  0.10177333     0.18100
N1556       N  0.01505574  0.09893007  0.06735604    -0.88610
H1557       H  0.88934786  0.03564685  0.08856241     0.35480
H1558       H  0.87639289  0.06388467  0.06347479     0.40580
H1559       H  0.03040533  0.07984776  0.07463713     0.40200
H1560       H  0.02083574  0.11844412  0.08054338     0.35090
C1561       C  0.04762935  0.13834295  0.88829062    -0.26640
C1562       C  0.08138971  0.13953499  0.88783148    -0.14720
C1563       C  0.09449336  0.15689239  0.86345031     0.35910
C1564       C  0.07461295  0.16656839  0.83931255    -0.26090
C1565       C  0.04183809  0.16276380  0.83906363    -0.15330
C1566       C  0.02783736  0.14971658  0.86425252     0.37000
N1567       N  0.99384776  0.14767575  0.86626029    -0.89580
H1568       H  0.03603743  0.12772809  0.90687905     0.18110
H1569       H  0.08518588  0.17753482  0.82029282     0.18100
N1570       N  0.12794805  0.16300390  0.86095824    -0.88610
H1571       H  0.98870390  0.12338807  0.86824195     0.35480
H1572       H  0.98177994  0.15626457  0.84679365     0.40580
H1573       H  0.14235083  0.15335246  0.87840428     0.40200
H1574       H  0.13586220  0.15207947  0.84175341     0.35090
C1575       C  0.93633201  0.21761889  0.29724273    -0.26640
C1576       C  0.92366241  0.24894583  0.29364922    -0.14720
C1577       C  0.89475471  0.25718636  0.30686781     0.35910
C1578       C  0.88038730  0.23438373  0.32444583    -0.26090
C1579       C  0.89495704  0.20384703  0.33193951    -0.15330
C1580       C  0.92179938  0.19479730  0.31524014     0.37000
N1581       N  0.93421132  0.16251927  0.31556968    -0.89580
H1582       H  0.95771479  0.21077609  0.28592724     0.18110
H1583       H  0.85741145  0.24151500  0.33261274     0.18100
N1584       N  0.87926125  0.28848029  0.30347934    -0.88610
H1585       H  0.95845057  0.16254244  0.32191450     0.35480
H1586       H  0.93235328  0.15412353  0.29382729     0.40580
H1587       H  0.89191387  0.30418613  0.29053790     0.40200
H1588       H  0.87861709  0.29847296  0.32460168     0.35090
C1589       C  0.88846737  0.33127589  0.21480352    -0.26640
C1590       C  0.92170997  0.33025024  0.21272753    -0.14720
C1591       C  0.93484730  0.34699356  0.18867136     0.35910
C1592       C  0.91483130  0.36695991  0.16972629    -0.26090
C1593       C  0.88176930  0.37117828  0.17416825    -0.15330
C1594       C  0.86860519  0.35029734  0.19548134     0.37000
N1595       N  0.83481932  0.34966856  0.19878324    -0.89580
H1596       H  0.87749928  0.31819567  0.23249116     0.18110
H1597       H  0.92551831  0.37845894  0.15110816     0.18100
N1598       N  0.96791644  0.34336514  0.18193421    -0.88610
H1599       H  0.82994466  0.35562362  0.22064815     0.35480
H1600       H  0.82765288  0.32621281  0.19535775     0.40580
H1601       H  0.97969367  0.32542153  0.19511439     0.40200
H1602       H  0.97873691  0.36505763  0.18643088     0.35090
C1603       C  0.04743795  0.33215196  0.33559271    -0.26640
C1604       C  0.04587211  0.36599250  0.33876133    -0.14720
C1605       C  0.02206012  0.38344516  0.32021720     0.35910
C1606       C  0.00169603  0.36692477  0.30064799    -0.26090
C1607       C  0.00389890  0.33349362  0.29807206    -0.15330
C1608       C  0.02817017  0.31624464  0.31477003     0.37000
N1609       N  0.03315094  0.28231222  0.31064836    -0.89580
H1610       H  0.06353128  0.31709169  0.34944936     0.18110
H1611       H  0.98308089  0.38054381  0.28807177     0.18100
N1612       N  0.01717035  0.41779390  0.32076628    -0.88610
H1613       H  0.05194118  0.27298033  0.32455703     0.35480
H1614       H  0.04002351  0.27909919  0.28879708     0.40580
H1615       H  0.03217773  0.42863436  0.33621442     0.40200
H1616       H  0.99396506  0.42264614  0.32742890     0.35090
C1617       C  0.03488770  0.43146581  0.43116931    -0.26640
C1618       C  0.00194965  0.43033274  0.42527191    -0.14720
C1619       C  0.99087943  0.40910010  0.40355380     0.35910
C1620       C  0.01277138  0.39279273  0.38617462    -0.26090
C1621       C  0.04625482  0.39785265  0.38763720    -0.15330
C1622       C  0.05714692  0.41478700  0.41381764     0.37000
N1623       N  0.08970552  0.41373605  0.42555189    -0.89580
H1624       H  0.04353533  0.44534568  0.44978921     0.18110
H1625       H  0.00230970  0.37552567  0.37156217     0.18100
N1626       N  0.95751933  0.40302707  0.39843769    -0.88610
H1627       H  0.09709853  0.43719511  0.42857368     0.35480
H1628       H  0.10557380  0.40283282  0.41148439     0.40580
H1629       H  0.94306929  0.41561638  0.41281608     0.40200
H1630       H  0.95439544  0.37870972  0.40313272     0.35090
C1631       C  0.92006881  0.37191184  0.60119698    -0.26640
C1632       C  0.88653149  0.36826416  0.59709813    -0.14720
C1633       C  0.87051922  0.35433601  0.62134628     0.35910
C1634       C  0.88717821  0.34699229  0.64813210    -0.26090
C1635       C  0.91989561  0.35142295  0.65171559    -0.15330
C1636       C  0.93671160  0.36338419  0.62798221     0.37000
N1637       N  0.97074126  0.36639086  0.63102992    -0.89580
H1638       H  0.93387181  0.38293968  0.58444864     0.18110
H1639       H  0.87455712  0.33614418  0.66611664     0.18100
N1640       N  0.83673227  0.34992507  0.61996203    -0.88610
H1641       H  0.97962527  0.37630244  0.61165583     0.35480
H1642       H  0.98115275  0.34331353  0.63353328     0.40580
H1643       H  0.82678146  0.36350458  0.63675355     0.40200
H1644       H  0.83259172  0.32602380  0.62554678     0.35090
C1645       C  0.89234878  0.44014266  0.55109906    -0.26640
C1646       C  0.89017736  0.40634509  0.55172382    -0.14720
C1647       C  0.90988688  0.38901828  0.53196393     0.35910
C1648       C  0.92879598  0.40508151  0.51205043    -0.26090
C1649       C  0.93092521  0.43845664  0.51186594    -0.15330
C1650       C  0.91419044  0.45584351  0.53348370     0.37000
N1651       N  0.91899543  0.48933503  0.53844586    -0.89580
H1652       H  0.87770873  0.45514713  0.56465303     0.18110
H1653       H  0.94109127  0.39093141  0.49586680     0.18100
N1654       N  0.91097444  0.35472667  0.53182163    -0.88610
H1655       H  0.92500925  0.49180665  0.56107428     0.35480
H1656       H  0.93910153  0.49670762  0.52764011     0.40580
H1657       H  0.93454068  0.34664136  0.53647329     0.40200
H1658       H  0.90419369  0.34740891  0.51042627     0.35090
C1659       C  0.83424861  0.31916235  0.51986001    -0.26640
C1660       C  0.82010031  0.33752426  0.49602487    -0.14720
C1661       C  0.81919950  0.37145408  0.49940980     0.35910
C1662       C  0.83082449  0.38526974  0.52584929    -0.26090
C1663       C  0.84641466  0.36747056  0.54967262    -0.15330
C1664       C  0.84799716  0.33301657  0.54573843     0.37000
N1665       N  0.86529258  0.31065774  0.56547687    -0.89580
H1666       H  0.83573489  0.29329354  0.51802412     0.18110
H1667       H  0.82996932  0.41124476  0.52677825     0.18100
N1668       N  0.80971507  0.39329784  0.47546055    -0.88610
H1669       H  0.85389094  0.30804725  0.58531203     0.35480
H1670       H  0.88908197  0.31650764  0.56876609     0.40580
H1671       H  0.78492323  0.39501978  0.47325853     0.40200
H1672       H  0.81967074  0.38562863  0.45579258     0.35090
C1673       C  0.81056597  0.23025319  0.39675185    -0.26640
C1674       C  0.82868399  0.25376553  0.41153910    -0.14720
C1675       C  0.86201301  0.25181870  0.40873808     0.35910
C1676       C  0.87593595  0.22737922  0.39163845    -0.26090
C1677       C  0.85805343  0.20457614  0.37527669    -0.15330
C1678       C  0.82453689  0.20609682  0.37890191     0.37000
N1679       N  0.80425980  0.18323605  0.36527961    -0.89580
H1680       H  0.78494103  0.23072852  0.39882903     0.18110
H1681       H  0.90157489  0.22707887  0.38971559     0.18100
N1682       N  0.88181232  0.27555542  0.42206337    -0.88610
H1683       H  0.78712873  0.19577446  0.35160973     0.35480
H1684       H  0.79229458  0.17153304  0.38204103     0.40580
H1685       H  0.87570244  0.29759784  0.41150315     0.40200
H1686       H  0.90585585  0.27071436  0.41816176     0.35090
C1687       C  0.70963840  0.38586365  0.39046656    -0.26640
C1688       C  0.68648792  0.36751685  0.37540177    -0.14720
C1689       C  0.69181867  0.33330215  0.37684756     0.35910
C1690       C  0.71717922  0.31944377  0.39468484    -0.26090
C1691       C  0.73970354  0.33807577  0.40947699    -0.15330
C1692       C  0.73619651  0.37181353  0.40660487     0.37000
N1693       N  0.76041037  0.39185963  0.41882888    -0.89580
H1694       H  0.70749700  0.41179476  0.38862904     0.18110
H1695       H  0.72000258  0.29351643  0.39588063     0.18100
N1696       N  0.67380001  0.31204291  0.35862297    -0.88610
H1697       H  0.75432864  0.41612467  0.41484965     0.35480
H1698       H  0.78126357  0.38705491  0.40755706     0.40580
H1699       H  0.66415438  0.29475977  0.37243913     0.40200
H1700       H  0.68940882  0.30005517  0.34474946     0.35090
C1701       C  0.86422169  0.53982415  0.40966084    -0.26640
C1702       C  0.87894557  0.56380667  0.39301140    -0.14720
C1703       C  0.91271292  0.56630344  0.39779500     0.35910
C1704       C  0.93033895  0.54242035  0.41441626    -0.26090
C1705       C  0.91563297  0.51625288  0.42721861    -0.15330
C1706       C  0.88190829  0.51513912  0.42478314     0.37000
N1707       N  0.86491389  0.48789346  0.43460497    -0.89580
H1708       H  0.83849735  0.53813336  0.40791193     0.18110
H1709       H  0.95595780  0.54442428  0.41737742     0.18100
N1710       N  0.92941863  0.59359532  0.38772452    -0.88610
H1711       H  0.86516872  0.48666908  0.45776611     0.35480
H1712       H  0.87561242  0.46702946  0.42645512     0.40580
H1713       H  0.94795293  0.58551532  0.37465440     0.40200
H1714       H  0.93986689  0.60445665  0.40631030     0.35090
C1715       C  0.84630424  0.53043464  0.34624275    -0.26640
C1716       C  0.83806484  0.56371397  0.34788521    -0.14720
C1717       C  0.81483120  0.57616771  0.32560279     0.35910
C1718       C  0.79904655  0.55511656  0.30666491    -0.26090
C1719       C  0.80618878  0.52236507  0.30747785    -0.15330
C1720       C  0.83046309  0.51002164  0.32712014     0.37000
N1721       N  0.84008517  0.47674047  0.32777553    -0.89580
H1722       H  0.86646544  0.51949844  0.35866580     0.18110
H1723       H  0.78086933  0.56472904  0.29105406     0.18100
N1724       N  0.80630941  0.60959581  0.32055097    -0.88610
H1725       H  0.84838959  0.47110087  0.30691706     0.35480
H1726       H  0.82024590  0.46308993  0.33187562     0.40580
H1727       H  0.81748038  0.62443989  0.33540646     0.40200
H1728       H  0.78192391  0.61282089  0.32382634     0.35090
C1729       C  0.79859231  0.45612187  0.19227988    -0.26640
C1730       C  0.80654703  0.45060850  0.22254182    -0.14720
C1731       C  0.83430218  0.43210738  0.23076038     0.35910
C1732       C  0.85252157  0.41879593  0.20875920    -0.26090
C1733       C  0.84185390  0.41886976  0.17844195    -0.15330
C1734       C  0.81627117  0.44103673  0.17006383     0.37000
N1735       N  0.80785374  0.44796875  0.13931093    -0.89580
H1736       H  0.77865056  0.47234750  0.18597778     0.18110
H1737       H  0.87468196  0.40685703  0.21638422     0.18100
N1738       N  0.84429878  0.42501521  0.26123129    -0.88610
H1739       H  0.78547853  0.45977980  0.13714988     0.35480
H1740       H  0.82409159  0.46449612  0.13193811     0.40580
H1741       H  0.82719218  0.43205593  0.27614130     0.40200
H1742       H  0.86501575  0.43750882  0.26597112     0.35090
C1743       C  0.72466076  0.40879623  0.29828117    -0.26640
C1744       C  0.72228422  0.44239616  0.29727503    -0.14720
C1745       C  0.69789358  0.45784572  0.31266485     0.35910
C1746       C  0.67839255  0.43992799  0.33067803    -0.26090
C1747       C  0.68034367  0.40592185  0.33222151    -0.15330
C1748       C  0.70396707  0.39040537  0.31494121     0.37000
N1749       N  0.70870581  0.35607863  0.31600047    -0.89580
H1750       H  0.74369067  0.39665175  0.28693624     0.18110
H1751       H  0.66238543  0.45362893  0.34403474     0.18100
N1752       N  0.69293031  0.49200562  0.31035246    -0.88610
H1753       H  0.72969929  0.34908560  0.30583169     0.35480
H1754       H  0.69024930  0.34609031  0.30345078     0.40580
H1755       H  0.69521169  0.50134504  0.33171824     0.40200
H1756       H  0.66952900  0.49690290  0.30224136     0.35090
C1757       C  0.05527067  0.37999097  0.66036450    -0.26640
C1758       C  0.06936757  0.35549445  0.67874341    -0.14720
C1759       C  0.10230144  0.35543133  0.68591120     0.35910
C1760       C  0.12089576  0.37608096  0.67015003    -0.26090
C1761       C  0.10760840  0.39782688  0.64793062    -0.15330
C1762       C  0.07388342  0.40197281  0.64572487     0.37000
N1763       N  0.05809281  0.42834264  0.62974899    -0.89580
H1764       H  0.02956162  0.38190255  0.65704614     0.18110
H1765       H  0.14647291  0.37364088  0.67409186     0.18100
N1766       N  0.11783846  0.33476548  0.70854053    -0.88610
H1767       H  0.04495379  0.44164399  0.64475073     0.35480
H1768       H  0.04195986  0.41915238  0.61400825     0.40580
H1769       H  0.10147285  0.32252477  0.72087004     0.40200
H1770       H  0.12942178  0.34943476  0.72386850     0.35090
C1771       C  0.20307457  0.44640121  0.67701955    -0.26640
C1772       C  0.18777726  0.47227542  0.69030396    -0.14720
C1773       C  0.15425479  0.47539430  0.68755143     0.35910
C1774       C  0.13744566  0.45452981  0.66943955    -0.26090
C1775       C  0.15313945  0.43163625  0.65182697    -0.15330
C1776       C  0.18604507  0.42485019  0.65954366     0.37000
N1777       N  0.20193898  0.39526073  0.65252720    -0.89580
H1778       H  0.22857191  0.44301021  0.68007564     0.18110
H1779       H  0.11179859  0.45834825  0.66685561     0.18100
N1780       N  0.13713656  0.50117182  0.70105966    -0.88610
H1781       H  0.20890708  0.38326134  0.67249703     0.35480
H1782       H  0.22262940  0.40058750  0.64151165     0.40580
H1783       H  0.12479131  0.51480245  0.68425295     0.40200
H1784       H  0.12039722  0.49127287  0.71481770     0.35090
C1785       C  0.18524927  0.60176336  0.79825930    -0.26640
C1786       C  0.15211028  0.59684845  0.80111284    -0.14720
C1787       C  0.13783019  0.57364081  0.78223024     0.35910
C1788       C  0.15680695  0.55602921  0.76318270    -0.26090
C1789       C  0.18918460  0.56211216  0.75953024    -0.15330
C1790       C  0.20327140  0.58615987  0.77691268     0.37000
N1791       N  0.23494670  0.59664631  0.77171163    -0.89580
H1792       H  0.19679038  0.62076271  0.81003527     0.18110
H1793       H  0.14478459  0.53922823  0.74899373     0.18100
N1794       N  0.10404644  0.56843701  0.77986708    -0.88610
H1795       H  0.24235047  0.61326147  0.78745626     0.35480
H1796       H  0.25107324  0.57712366  0.77355598     0.40580
H1797       H  0.09079281  0.58632684  0.78977709     0.40200
H1798       H  0.09676293  0.57086579  0.75737688     0.35090
C1799       C  0.27221162  0.58859672  0.63065246    -0.26640
C1800       C  0.30484922  0.59239787  0.63909184    -0.14720
C1801       C  0.31687036  0.57462964  0.66482288     0.35910
C1802       C  0.29601943  0.55792821  0.68261412    -0.26090
C1803       C  0.26342833  0.55746146  0.67509421    -0.15330
C1804       C  0.25141854  0.57248329  0.64849367     0.37000
N1805       N  0.21829149  0.57216791  0.63873365    -0.89580
H1806       H  0.26176551  0.59838360  0.60995321     0.18110
H1807       H  0.30534743  0.54557851  0.70271725     0.18100
N1808       N  0.35000620  0.57411628  0.67373906    -0.88610
H1809       H  0.20942175  0.59591659  0.63803240     0.35480
H1810       H  0.20447743  0.55983383  0.65358081     0.40580
H1811       H  0.35853868  0.55026132  0.67400421     0.40200
H1812       H  0.35236540  0.58245465  0.69546318     0.35090
C1813       C  0.07915979  0.54588575  0.46590603    -0.26640
C1814       C  0.06143642  0.56408530  0.48575128    -0.14720
C1815       C  0.06033958  0.59778635  0.48196245     0.35910
C1816       C  0.07516728  0.61201613  0.45797395    -0.26090
C1817       C  0.09320920  0.59407377  0.43777981    -0.15330
C1818       C  0.09667473  0.56031199  0.44365046     0.37000
N1819       N  0.11989263  0.54052005  0.42958011    -0.89580
H1820       H  0.08115385  0.52003352  0.46869592     0.18110
H1821       H  0.07339483  0.63790773  0.45560058     0.18100
N1822       N  0.04589868  0.61809564  0.50329782    -0.88610
H1823       H  0.13633709  0.53142725  0.44599082     0.35480
H1824       H  0.10840917  0.52102483  0.42022154     0.40580
H1825       H  0.02817585  0.63253231  0.49215967     0.40200
H1826       H  0.06329350  0.63306071  0.51204427     0.35090
C1827       C  0.07709525  0.45308680  0.56318009    -0.26640
C1828       C  0.07698569  0.48555020  0.57057107    -0.14720
C1829       C  0.09922757  0.49563592  0.59225146     0.35910
C1830       C  0.11995052  0.47286217  0.60711649    -0.26090
C1831       C  0.11615514  0.43926887  0.60433881    -0.15330
C1832       C  0.09624228  0.42997143  0.57970064     0.37000
N1833       N  0.09448955  0.39707226  0.57171376    -0.89580
H1834       H  0.06141018  0.44542151  0.54511957     0.18110
H1835       H  0.13858560  0.48221220  0.62127784     0.18100
N1836       N  0.10041276  0.52906565  0.59940764    -0.88610
H1837       H  0.10136340  0.39505935  0.54973170     0.35480
H1838       H  0.07075312  0.39043224  0.57255522     0.40580
H1839       H  0.10790914  0.54148901  0.58069334     0.40200
H1840       H  0.11738451  0.53260445  0.61661714     0.35090
C1841       C  0.28135176  0.65443833  0.60945453    -0.26640
C1842       C  0.30554555  0.63543993  0.59699403    -0.14720
C1843       C  0.30920994  0.63949337  0.56584249     0.35910
C1844       C  0.28617331  0.65817824  0.54828186    -0.26090
C1845       C  0.26001195  0.67399382  0.56114016    -0.15330
C1846       C  0.25820054  0.67168140  0.59250601     0.37000
N1847       N  0.23206996  0.68460948  0.60836698    -0.89580
H1848       H  0.27865298  0.65378205  0.63326035     0.18110
H1849       H  0.28883133  0.66036256  0.52448289     0.18100
N1850       N  0.33673052  0.62653942  0.55202187    -0.88610
H1851       H  0.21042156  0.67906283  0.59766548     0.35480
H1852       H  0.23470417  0.70920684  0.61048893     0.40580
H1853       H  0.34900989  0.64568641  0.54322265     0.40200
H1854       H  0.32901484  0.61269917  0.53416269     0.35090
C1855       C  0.15377678  0.61851059  0.45738491    -0.26640
C1856       C  0.13361999  0.63547375  0.43586271    -0.14720
C1857       C  0.13155618  0.66968324  0.43916467     0.35910
C1858       C  0.15013206  0.68460406  0.46158274    -0.26090
C1859       C  0.16967630  0.66722538  0.48293964    -0.15330
C1860       C  0.17045904  0.63325891  0.48083383     0.37000
N1861       N  0.18509296  0.61239709  0.50355323    -0.89580
H1862       H  0.15538167  0.59255121  0.45685248     0.18110
H1863       H  0.14847232  0.71053283  0.46268220     0.18100
N1864       N  0.10992604  0.69056539  0.42191783    -0.88610
H1865       H  0.18035666  0.62114662  0.52459609     0.35480
H1866       H  0.20955311  0.61002090  0.50062997     0.40580
H1867       H  0.08664480  0.68274628  0.42305729     0.40200
H1868       H  0.11720612  0.69251665  0.40015115     0.35090
C1869       C  0.14064012  0.80533576  0.56549349    -0.26640
C1870       C  0.14595651  0.80515057  0.59701067    -0.14720
C1871       C  0.16444955  0.77864981  0.60964779     0.35910
C1872       C  0.17669674  0.75471615  0.59123351    -0.26090
C1873       C  0.17337360  0.75643144  0.55999845    -0.15330
C1874       C  0.15523713  0.78268244  0.54703603     0.37000
N1875       N  0.15162729  0.78792880  0.51537658    -0.89580
H1876       H  0.12472437  0.82294382  0.55435816     0.18110
H1877       H  0.18853525  0.73393651  0.60167591     0.18100
N1878       N  0.16897012  0.77471876  0.64143869    -0.88610
H1879       H  0.12808959  0.78317050  0.50885894     0.35480
H1880       H  0.16670352  0.77274500  0.50379206     0.40580
H1881       H  0.18367653  0.79266288  0.64919314     0.40200
H1882       H  0.18098618  0.75295884  0.64713816     0.35090
C1883       C  0.97445159  0.60678877  0.60591138    -0.26640
C1884       C  0.94098862  0.60195050  0.60321691    -0.14720
C1885       C  0.93123470  0.58152768  0.57912379     0.35910
C1886       C  0.95434361  0.56499555  0.56268511    -0.26090
C1887       C  0.98703462  0.56736283  0.56900090    -0.15330
C1888       C  0.99711907  0.58979613  0.59000320     0.37000
N1889       N  0.03022562  0.59670374  0.59560529    -0.89580
H1890       H  0.98428743  0.62496891  0.61983508     0.18110
H1891       H  0.94652921  0.54959112  0.54493070     0.18100
N1892       N  0.89857524  0.57629621  0.57023354    -0.88610
H1893       H  0.03311726  0.62075366  0.58962849     0.35480
H1894       H  0.04541750  0.58335239  0.58247155     0.40580
H1895       H  0.88309012  0.58560679  0.58522995     0.40200
H1896       H  0.89514272  0.55157577  0.57094963     0.35090
C1897       C  0.98295285  0.64503438  0.68383431    -0.26640
C1898       C  0.98171033  0.67882938  0.68154787    -0.14720
C1899       C  0.95484908  0.69349177  0.66634952     0.35910
C1900       C  0.93273858  0.67468167  0.65064010    -0.26090
C1901       C  0.93720815  0.64093403  0.64822890    -0.15330
C1902       C  0.96048536  0.62626033  0.66852873     0.37000
N1903       N  0.96306008  0.59204927  0.67188501    -0.89580
H1904       H  0.00237063  0.63272289  0.69646197     0.18110
H1905       H  0.91216246  0.68721850  0.64033352     0.18100
N1906       N  0.94942052  0.72751853  0.66718887    -0.88610
H1907       H  0.96035929  0.58617118  0.69431517     0.35480
H1908       H  0.98599905  0.58438953  0.66637543     0.40580
H1909       H  0.92726732  0.73199140  0.67635092     0.40200
H1910       H  0.94812036  0.73650949  0.64528907     0.35090
C1911       C  0.08826520  0.78391072  0.62301175    -0.26640
C1912       C  0.10734252  0.80659624  0.63795904    -0.14720
C1913       C  0.10677121  0.80586437  0.66972691     0.35910
C1914       C  0.08606285  0.78509569  0.68432354    -0.26090
C1915       C  0.06809170  0.76193987  0.66919915    -0.15330
C1916       C  0.07010075  0.76138126  0.63778770     0.37000
N1917       N  0.05585916  0.73719238  0.61993523    -0.89580
H1918       H  0.08800200  0.78313106  0.59894250     0.18110
H1919       H  0.08512636  0.78610193  0.70830863     0.18100
N1920       N  0.12759736  0.82494458  0.68767425    -0.88610
H1921       H  0.03126192  0.74150480  0.61787561     0.35480
H1922       H  0.06134544  0.71455705  0.62956304     0.40580
H1923       H  0.15085277  0.81580222  0.68571307     0.40200
H1924       H  0.12278613  0.82278911  0.71022919     0.35090
C1925       C  0.09970791  0.66541509  0.74537290    -0.26640
C1926       C  0.07370093  0.68329011  0.75476315    -0.14720
C1927       C  0.06898709  0.68508505  0.78561718     0.35910
C1928       C  0.08935794  0.66682774  0.80582694    -0.26090
C1929       C  0.11327824  0.64476768  0.79636693    -0.15330
C1930       C  0.12016007  0.64777021  0.76526787     0.37000
N1931       N  0.14930442  0.63599255  0.75341521    -0.89580
H1932       H  0.10490926  0.66581204  0.72193639     0.18110
H1933       H  0.08590531  0.66949576  0.82938715     0.18100
N1934       N  0.04402228  0.70497079  0.79728255    -0.88610
H1935       H  0.14380435  0.62113339  0.73557469     0.35480
H1936       H  0.16159109  0.65546397  0.74522654     0.40580
H1937       H  0.03076055  0.71734575  0.78028871     0.40200
H1938       H  0.05484189  0.72234668  0.81035242     0.35090
C1939       C  0.89179806  0.13302170  0.69270710    -0.26640
C1940       C  0.90239735  0.16033832  0.67834849    -0.14720
C1941       C  0.88302757  0.17436603  0.65478523     0.35910
C1942       C  0.85584039  0.15908808  0.64441907    -0.26090
C1943       C  0.84865655  0.12830529  0.65467945    -0.15330
C1944       C  0.86419711  0.11793788  0.68260827     0.37000
N1945       N  0.85311782  0.09158124  0.70024218    -0.89580
H1946       H  0.90543295  0.12284823  0.71169590     0.18110
H1947       H  0.84073684  0.17212513  0.62823275     0.18100
N1948       N  0.89047452  0.20427068  0.64104794    -0.88610
H1949       H  0.86571469  0.08940521  0.72077452     0.35480
H1950       H  0.85721557  0.06998558  0.68951510     0.40580
H1951       H  0.87083356  0.22015733  0.64255937     0.40200
H1952       H  0.89372054  0.20035520  0.61846494     0.35090
C1953       C  0.62574834  0.16339303  0.46295496    -0.26640
C1954       C  0.64125060  0.14460395  0.44159009    -0.14720
C1955       C  0.67524758  0.14175677  0.44460660     0.35910
C1956       C  0.69174327  0.15823628  0.46756717    -0.26090
C1957       C  0.67572991  0.17539970  0.48954783    -0.15330
C1958       C  0.64206006  0.17721571  0.48709742     0.37000
N1959       N  0.62378704  0.19124515  0.50999248    -0.89580
H1960       H  0.59994481  0.16582885  0.46182880     0.18110
H1961       H  0.71755410  0.15652480  0.46894495     0.18100
N1962       N  0.69329476  0.12142638  0.42561917    -0.88610
H1963       H  0.60921348  0.17371533  0.51847526     0.35480
H1964       H  0.60904760  0.20965547  0.50032553     0.40580
H1965       H  0.68858473  0.09766209  0.43113544     0.40200
H1966       H  0.71779912  0.12376467  0.42970387     0.35090
C1967       C  0.66638625  0.28056406  0.55870929    -0.26640
C1968       C  0.68501165  0.25595570  0.57338460    -0.14720
C1969       C  0.68671923  0.25606627  0.60499679     0.35910
C1970       C  0.67253249  0.28170171  0.62030704    -0.26090
C1971       C  0.65351499  0.30648202  0.60584180    -0.15330
C1972       C  0.64897456  0.30388835  0.57425628     0.37000
N1973       N  0.62482512  0.32240990  0.55757601    -0.89580
H1974       H  0.66371009  0.28103230  0.53467847     0.18110
H1975       H  0.67469922  0.28131408  0.64440316     0.18100
N1976       N  0.70109593  0.22928439  0.62183685    -0.88610
H1977       H  0.60833081  0.30664912  0.54855675     0.35480
H1978       H  0.63540124  0.33389902  0.53983443     0.40580
H1979       H  0.68740534  0.20930436  0.61740398     0.40200
H1980       H  0.70030272  0.23304816  0.64471333     0.35090
C1981       C  0.79388182  0.16295145  0.56826086    -0.26640
C1982       C  0.76078486  0.16184392  0.57130000    -0.14720
C1983       C  0.74915693  0.14026661  0.59233501     0.35910
C1984       C  0.77058723  0.12188245  0.61065420    -0.26090
C1985       C  0.80434486  0.12501922  0.61083642    -0.15330
C1986       C  0.81569752  0.14394901  0.58676842     0.37000
N1987       N  0.84921434  0.14439948  0.58129338    -0.89580
H1988       H  0.80274728  0.17862988  0.55123562     0.18110
H1989       H  0.75952913  0.10480332  0.62487109     0.18100
N1990       N  0.71559555  0.13618807  0.59612118    -0.88610
H1991       H  0.85366498  0.16211834  0.56538702     0.35480
H1992       H  0.85578041  0.12265979  0.57185242     0.40580
H1993       H  0.70112653  0.15040387  0.58139306     0.40200
H1994       H  0.71049673  0.14362183  0.61752992     0.35090
C1995       C  0.55558405  0.08725006  0.47206328    -0.26640
C1996       C  0.57524409  0.06713321  0.49140847    -0.14720
C1997       C  0.60818457  0.06587108  0.48613147     0.35910
C1998       C  0.62005979  0.08310596  0.46191483    -0.26090
C1999       C  0.60073733  0.10414894  0.44291324    -0.15330
C2000       C  0.56786796  0.10665971  0.44932605     0.37000
N2001       N  0.54676899  0.12996781  0.43444108    -0.89580
H2002       H  0.53014909  0.08900609  0.47510479     0.18110
H2003       H  0.64540613  0.08098750  0.45862958     0.18100
N2004       N  0.63033104  0.04862856  0.50610800    -0.88610
H2005       H  0.53764104  0.14526081  0.45039746     0.35480
H2006       H  0.52771815  0.11797540  0.42453816     0.40580
H2007       H  0.64662630  0.06482811  0.51472520     0.40200
H2008       H  0.64289968  0.03171237  0.49387605     0.35090
C2009       C  0.44460605  0.10158987  0.57109531    -0.26640
C2010       C  0.44399125  0.09824068  0.60252871    -0.14720
C2011       C  0.46790717  0.07780177  0.61688570     0.35910
C2012       C  0.49124176  0.06235153  0.60043597    -0.26090
C2013       C  0.49154741  0.06557866  0.56931094    -0.15330
C2014       C  0.46739886  0.08495155  0.55445836     0.37000
N2015       N  0.46603997  0.08778859  0.52251283    -0.89580
H2016       H  0.42831658  0.11817743  0.55907011     0.18110
H2017       H  0.50971057  0.04806455  0.61246617     0.18100
N2018       N  0.46876173  0.07285959  0.64854569    -0.88610
H2019       H  0.44693897  0.10296787  0.51497630     0.35480
H2020       H  0.46152883  0.06509631  0.51414427     0.40580
H2021       H  0.49080872  0.08015231  0.65719645     0.40200
H2022       H  0.46724900  0.04828492  0.65304665     0.35090
C2023       C  0.58992440  0.95142864  0.55980277    -0.26640
C2024       C  0.57323970  0.97709559  0.57279458    -0.14720
C2025       C  0.57083690  0.97596939  0.60419460     0.35910
C2026       C  0.58445619  0.94992486  0.62106345    -0.26090
C2027       C  0.60621551  0.92756125  0.60917733    -0.15330
C2028       C  0.60576065  0.92633755  0.57736550     0.37000
N2029       N  0.61967283  0.89937839  0.56264960    -0.89580
H2030       H  0.59041401  0.95075289  0.53577036     0.18110
H2031       H  0.58244240  0.95038200  0.64484959     0.18100
N2032       N  0.55697501  0.00264272  0.61951993    -0.88610
H2033       H  0.61804073  0.90283524  0.53954239     0.35480
H2034       H  0.60625947  0.87942194  0.56732024     0.40580
H2035       H  0.57135202  0.02229502  0.61626987     0.40200
H2036       H  0.55715029  0.99821024  0.64248842     0.35090
C2037       C  0.49064932  0.17498323  0.64343446    -0.26640
C2038       C  0.49179879  0.17450755  0.67461898    -0.14720
C2039       C  0.46809644  0.15705363  0.68915623     0.35910
C2040       C  0.44632625  0.13868139  0.67241871    -0.26090
C2041       C  0.44490073  0.13932571  0.64093943    -0.15330
C2042       C  0.46734568  0.15893588  0.62659565     0.37000
N2043       N  0.46704361  0.16208292  0.59465672    -0.89580
H2044       H  0.50850368  0.18779037  0.63176732     0.18110
H2045       H  0.43021913  0.12420513  0.68454743     0.18100
N2046       N  0.46403910  0.15863982  0.72064916    -0.88610
H2047       H  0.48647951  0.17487155  0.58769155     0.35480
H2048       H  0.44674370  0.17574177  0.58761460     0.40580
H2049       H  0.47621525  0.17761000  0.73006360     0.40200
H2050       H  0.47289208  0.13706409  0.73051078     0.35090
C2051       C  0.61028319  0.17073311  0.76204609    -0.26640
C2052       C  0.57699014  0.17270537  0.75778299    -0.14720
C2053       C  0.55837345  0.15946291  0.78015748     0.35910
C2054       C  0.57331111  0.14250358  0.80465603    -0.26090
C2055       C  0.60690462  0.14031065  0.80929402    -0.15330
C2056       C  0.62520540  0.15553917  0.78734514     0.37000
N2057       N  0.65931964  0.15521603  0.79033768    -0.89580
H2058       H  0.62522132  0.18050845  0.74529714     0.18110
H2059       H  0.55798921  0.13043054  0.81952423     0.18100
N2060       N  0.52418063  0.16333306  0.77808493    -0.88610
H2061       H  0.66662625  0.17892732  0.79005547     0.35480
H2062       H  0.66844201  0.14396896  0.77177475     0.40580
H2063       H  0.51852949  0.18787191  0.77921218     0.40200
H2064       H  0.51390531  0.15230655  0.79624054     0.35090
C2065       C  0.59788178  0.27852345  0.69128459    -0.26640
C2066       C  0.57836171  0.25743824  0.67509091    -0.14720
C2067       C  0.57784790  0.26046770  0.64369749     0.35910
C2068       C  0.59474706  0.28470614  0.62978998    -0.26090
C2069       C  0.61469485  0.30585522  0.64567007    -0.15330
C2070       C  0.61689495  0.30129368  0.67718244     0.37000
N2071       N  0.63930368  0.31814365  0.69530021    -0.89580
H2072       H  0.59932446  0.27692465  0.71534542     0.18110
H2073       H  0.59294931  0.28644194  0.60571181     0.18100
N2074       N  0.56162354  0.23794807  0.62536867    -0.88610
H2075       H  0.65478235  0.30126896  0.70635991     0.35480
H2076       H  0.62676609  0.33058954  0.71131758     0.40580
H2077       H  0.57830629  0.22678756  0.61199616     0.40200
H2078       H  0.54486321  0.25066262  0.61143581     0.35090
C2079       C  0.69212925  0.07152056  0.79480942    -0.26640
C2080       C  0.67453720  0.05757992  0.77179386    -0.14720
C2081       C  0.64091825  0.06030014  0.77184424     0.35910
C2082       C  0.62610975  0.07664780  0.79459222    -0.26090
C2083       C  0.64354662  0.09348938  0.81648166    -0.15330
C2084       C  0.67766721  0.09055886  0.81605946     0.37000
N2085       N  0.69842554  0.10875940  0.83473817    -0.89580
H2086       H  0.71770902  0.06964947  0.79522741     0.18110
H2087       H  0.60026615  0.07845454  0.79375757     0.18100
N2088       N  0.62143288  0.04868974  0.74771921    -0.88610
H2089       H  0.71204467  0.12318305  0.82127273     0.35480
H2090       H  0.71400838  0.09277393  0.84682280     0.40580
H2091       H  0.60805716  0.06809617  0.73807382     0.40200
H2092       H  0.60560885  0.03250329  0.75645186     0.35090
C2093       C  0.76273590  0.09429069  0.69434861    -0.26640
C2094       C  0.75755116  0.06151822  0.69229786    -0.14720
C2095       C  0.77715474  0.04283137  0.67379467     0.35910
C2096       C  0.80060794  0.05721453  0.65762662    -0.26090
C2097       C  0.80465693  0.09044702  0.65789788    -0.15330
C2098       C  0.78551177  0.10906598  0.67759215     0.37000
N2099       N  0.78721688  0.14322911  0.68036155    -0.89580
H2100       H  0.74768578  0.10922360  0.70778397     0.18110
H2101       H  0.81460857  0.04183421  0.64377912     0.18100
N2102       N  0.77244678  0.00930270  0.66978650    -0.88610
H2103       H  0.78491716  0.15475984  0.65957341     0.35480
H2104       H  0.80854016  0.14902155  0.69136418     0.40580
H2105       H  0.76506650  0.00623765  0.64754394     0.40200
H2106       H  0.79448133  0.99736173  0.67237390     0.35090
C2107       C  0.64774507  0.96825628  0.64044152    -0.26640
C2108       C  0.64929254  0.93580731  0.65042872    -0.14720
C2109       C  0.66918273  0.92856637  0.67632555     0.35910
C2110       C  0.67981278  0.95322400  0.69427629    -0.26090
C2111       C  0.67250203  0.98508244  0.68640802    -0.15330
C2112       C  0.65684738  0.99288688  0.65882875     0.37000
N2113       N  0.64943099  0.02539561  0.64884869    -0.89580
H2114       H  0.63842998  0.97531019  0.61844932     0.18110
H2115       H  0.69439668  0.94741634  0.71427981     0.18100
N2116       N  0.67823833  0.89647725  0.68523693    -0.88610
H2117       H  0.66387061  0.03051201  0.63110398     0.35480
H2118       H  0.65405339  0.04197379  0.66543258     0.40580
H2119       H  0.67092332  0.89234916  0.70688128     0.40200
H2120       H  0.70314533  0.89424982  0.68572714     0.35090
C2121       C  0.10516582  0.11648794  0.37531711    -0.26640
C2122       C  0.09195546  0.11817764  0.34543385    -0.14720
C2123       C  0.06685642  0.09665263  0.33909221     0.35910
C2124       C  0.05244211  0.08081970  0.36270285    -0.26090
C2125       C  0.06379108  0.08303212  0.39260888    -0.15330
C2126       C  0.09168071  0.09965140  0.39845808     0.37000
N2127       N  0.10717427  0.09853862  0.42766199    -0.89580
H2128       H  0.12752024  0.12698356  0.38130896     0.18110
H2129       H  0.03251603  0.06585371  0.35725002     0.18100
N2130       N  0.05725317  0.08788034  0.30928061    -0.88610
H2131       H  0.12700255  0.11305178  0.42863498     0.35480
H2132       H  0.11588459  0.07499422  0.43167735     0.40580
H2133       H  0.06866991  0.10089241  0.29314154     0.40200
H2134       H  0.03272948  0.09219626  0.30583626     0.35090
C2135       C  0.86560517  0.05017280  0.57637805    -0.26640
C2136       C  0.89728351  0.04691918  0.58777729    -0.14720
C2137       C  0.90388761  0.05513348  0.61716241     0.35910
C2138       C  0.88063055  0.07233230  0.63227361    -0.26090
C2139       C  0.84954395  0.08088416  0.61973005    -0.15330
C2140       C  0.84152684  0.06549714  0.59227308     0.37000
N2141       N  0.80971439  0.06467718  0.57945722    -0.89580
H2142       H  0.85962318  0.04156499  0.55431385     0.18110
H2143       H  0.88882053  0.07938997  0.65363411     0.18100
N2144       N  0.93489027  0.04790533  0.63105700    -0.88610
H2145       H  0.80372669  0.08592185  0.56765346     0.35480
H2146       H  0.79352048  0.06016702  0.59587162     0.40580
H2147       H  0.93739041  0.02293443  0.63338129     0.40200
H2148       H  0.93659219  0.05682234  0.65260670     0.35090
C2149       C  0.09923179  0.90423727  0.57148705    -0.26640
C2150       C  0.06726460  0.90808915  0.57854108    -0.14720
C2151       C  0.05313217  0.88377317  0.59515138     0.35910
C2152       C  0.07191510  0.85710526  0.60554352    -0.26090
C2153       C  0.10468637  0.85312991  0.59910262    -0.15330
C2154       C  0.11764645  0.87721805  0.58066525     0.37000
N2155       N  0.15014583  0.87516890  0.57209278    -0.89580
H2156       H  0.10992403  0.92214395  0.55759333     0.18110
H2157       H  0.06033460  0.84032759  0.61969255     0.18100
N2158       N  0.01974255  0.88450845  0.60105745    -0.88610
H2159       H  0.16153303  0.89565061  0.57948795     0.35480
H2160       H  0.15023062  0.87555944  0.54884051     0.40580
H2161       H  0.00777144  0.90447766  0.59111757     0.40200
H2162       H  0.01772354  0.88644494  0.62405075     0.35090
C2163       C  0.90220870  0.11811386  0.41400137    -0.26640
C2164       C  0.93504845  0.11494572  0.41135141    -0.14720
C2165       C  0.95126847  0.13913202  0.39622306     0.35910
C2166       C  0.93318359  0.16392110  0.38096426    -0.26090
C2167       C  0.89952311  0.16319676  0.37885338    -0.15330
C2168       C  0.88433027  0.14156548  0.39812547     0.37000
N2169       N  0.85029976  0.14099453  0.39919032    -0.89580
H2170       H  0.88981338  0.10085786  0.42716226     0.18110
H2171       H  0.94559691  0.18245598  0.36958977     0.18100
N2172       N  0.98545724  0.13902105  0.39540302    -0.88610
H2173       H  0.84411441  0.14399582  0.42126588     0.35480
H2174       H  0.84289059  0.11848005  0.39241304     0.40580
H2175       H  0.99593742  0.11946251  0.40741613     0.40200
H2176       H  0.99314715  0.15963178  0.40602068     0.35090
C2177       C  0.86576910  0.42955109  0.61457456    -0.26640
C2178       C  0.84760975  0.41242315  0.59284011    -0.14720
C2179       C  0.81411620  0.41256469  0.59680181     0.35910
C2180       C  0.80113477  0.42612665  0.62256591    -0.26090
C2181       C  0.82020557  0.43947396  0.64552888    -0.15330
C2182       C  0.85301882  0.44224214  0.64054010     0.37000
N2183       N  0.87433215  0.45829783  0.66071703    -0.89580
H2184       H  0.89130747  0.43089730  0.61256974     0.18110
H2185       H  0.77562106  0.42516160  0.62510918     0.18100
N2186       N  0.79304226  0.39710037  0.57627534    -0.88610
H2187       H  0.89068535  0.44106429  0.67000655     0.35480
H2188       H  0.86253729  0.46871956  0.67820766     0.40580
H2189       H  0.77573834  0.41406935  0.56821857     0.40200
H2190       H  0.78151884  0.37915002  0.58779355     0.35090
C2191       C  0.70038962  0.39117412  0.65079311    -0.26640
C2192       C  0.68109243  0.41438615  0.66413252    -0.14720
C2193       C  0.64913081  0.40676393  0.66907294     0.35910
C2194       C  0.63782781  0.37671881  0.66140286    -0.26090
C2195       C  0.65553683  0.35403680  0.64501545    -0.15330
C2196       C  0.68840479  0.36169907  0.64088086     0.37000
N2197       N  0.71088384  0.34109548  0.62685924    -0.89580
H2198       H  0.72547724  0.39565528  0.64858458     0.18110
H2199       H  0.61308569  0.37242316  0.66557351     0.18100
N2200       N  0.62679732  0.42944162  0.68109095    -0.88610
H2201       H  0.70379639  0.33741618  0.60473171     0.35480
H2202       H  0.71427522  0.31975422  0.63920504     0.40580
H2203       H  0.63632043  0.45208678  0.68350976     0.40200
H2204       H  0.62096154  0.42088600  0.70209149     0.35090
C2205       C  0.86350668  0.55080977  0.65044761    -0.26640
C2206       C  0.84011295  0.56963391  0.66413554    -0.14720
C2207       C  0.84716777  0.60172989  0.67067805     0.35910
C2208       C  0.87641951  0.61414073  0.66348210    -0.26090
C2209       C  0.89711460  0.59783499  0.64449133    -0.15330
C2210       C  0.89225680  0.56430525  0.64097935     0.37000
N2211       N  0.91652151  0.54372165  0.62921689    -0.89580
H2212       H  0.85994415  0.52536411  0.64822818     0.18110
H2213       H  0.88010449  0.63914143  0.66811964     0.18100
N2214       N  0.82385957  0.62217192  0.68414975    -0.88610
H2215       H  0.90896609  0.52013359  0.62796510     0.35480
H2216       H  0.93625801  0.54330985  0.64416695     0.40580
H2217       H  0.80421587  0.62488953  0.66913541     0.40200
H2218       H  0.83239522  0.64513049  0.68757584     0.35090
C2219       C  0.64581096  0.58800322  0.90061045    -0.26640
C2220       C  0.65010413  0.62121002  0.90510716    -0.14720
C2221       C  0.66917292  0.63702746  0.88348677     0.35910
C2222       C  0.68027457  0.62024628  0.85877039    -0.26090
C2223       C  0.67280786  0.58841523  0.85356595    -0.15330
C2224       C  0.65545998  0.57214078  0.87507081     0.37000
N2225       N  0.64483786  0.54008087  0.87089906    -0.89580
H2226       H  0.63141185  0.57426222  0.91514335     0.18110
H2227       H  0.69492029  0.63253207  0.84317804     0.18100
N2228       N  0.67742826  0.67017330  0.88465703    -0.88610
H2229       H  0.65459504  0.52597128  0.88860448     0.35480
H2230       H  0.65243168  0.53023024  0.85116036     0.40580
H2231       H  0.66894089  0.68180918  0.90294269     0.40200
H2232       H  0.66698709  0.68204815  0.86580926     0.35090
C2233       C  0.66005629  0.80006930  0.08746316    -0.26640
C2234       C  0.65777754  0.76680163  0.09169681    -0.14720
C2235       C  0.63720262  0.75598076  0.11319921     0.35910
C2236       C  0.61903625  0.77816675  0.12936579    -0.26090
C2237       C  0.62258726  0.81212010  0.12775861    -0.15330
C2238       C  0.64320390  0.82264397  0.10503102     0.37000
N2239       N  0.64590441  0.85617797  0.09836047    -0.89580
H2240       H  0.67544699  0.80858105  0.07048304     0.18110
H2241       H  0.60129593  0.76762884  0.14254607     0.18100
N2242       N  0.63455501  0.72204537  0.11849313    -0.88610
H2243       H  0.65793444  0.85966061  0.07873342     0.35480
H2244       H  0.66019565  0.86576285  0.11521778     0.40580
H2245       H  0.62428833  0.71232327  0.09925379     0.40200
H2246       H  0.61920070  0.71755172  0.13568324     0.35090
C2247       C  0.74703705  0.67572983  0.12057664    -0.26640
C2248       C  0.74580386  0.68064278  0.08957404    -0.14720
C2249       C  0.77047347  0.66624270  0.07332825     0.35910
C2250       C  0.79370513  0.64556359  0.08789575    -0.26090
C2251       C  0.79599374  0.64111375  0.11921434    -0.15330
C2252       C  0.77166295  0.65697848  0.13556948     0.37000
N2253       N  0.77088273  0.65288691  0.16737985    -0.89580
H2254       H  0.72814617  0.68604749  0.13338771     0.18110
H2255       H  0.80969205  0.63251444  0.07402176     0.18100
N2256       N  0.77216463  0.67275470  0.04191626    -0.88610
H2257       H  0.75075047  0.66448752  0.17565041     0.35480
H2258       H  0.79058624  0.66375729  0.17719389     0.40580
H2259       H  0.77612518  0.69722139  0.03909510     0.40200
H2260       H  0.79166441  0.66046881  0.03319792     0.35090
C2261       C  0.63441172  0.69568510  0.99414299    -0.26640
C2262       C  0.66726232  0.69440226  0.00150765    -0.14720
C2263       C  0.68764913  0.67953892  0.98096345     0.35910
C2264       C  0.67461712  0.66300182  0.95631182    -0.26090
C2265       C  0.64141250  0.66259742  0.94969204    -0.15330
C2266       C  0.62156984  0.68082931  0.96859680     0.37000
N2267       N  0.58780465  0.68348237  0.96254913    -0.89580
H2268       H  0.61809475  0.70726665  0.00890025     0.18110
H2269       H  0.69080518  0.64980286  0.94260881     0.18100
N2270       N  0.72169990  0.68120079  0.98510957    -0.88610
H2271       H  0.58128353  0.70782635  0.96000530     0.35480
H2272       H  0.57649553  0.67443050  0.98105060     0.40580
H2273       H  0.72742227  0.70533932  0.98322910     0.40200
H2274       H  0.73332037  0.66923632  0.96822683     0.35090
C2275       C  0.43273348  0.60401288  0.06514573    -0.26640
C2276       C  0.42960293  0.60144152  0.09651306    -0.14720
C2277       C  0.45590008  0.58694511  0.11315977     0.35910
C2278       C  0.48444460  0.57924569  0.09929881    -0.26090
C2279       C  0.48707594  0.58171257  0.06815136    -0.15330
C2280       C  0.45993945  0.59311223  0.05102119     0.37000
N2281       N  0.45845139  0.59312073  0.01912487    -0.89580
H2282       H  0.41466513  0.61552879  0.05052995     0.18110
H2283       H  0.50467733  0.57077671  0.11336764     0.18100
N2284       N  0.45445509  0.58155968  0.14462262    -0.88610
H2285       H  0.46525995  0.57031136  0.01193292     0.35480
H2286       H  0.47354171  0.61023361  0.01096088     0.40580
H2287       H  0.47273108  0.59407593  0.15521313     0.40200
H2288       H  0.45884826  0.55708413  0.14911801     0.35090
C2289       C  0.60517814  0.57896656  0.99023830    -0.26640
C2290       C  0.57175840  0.57978097  0.98945740    -0.14720
C2291       C  0.55570751  0.59769962  0.96571709     0.35910
C2292       C  0.57327010  0.61631339  0.94583531    -0.26090
C2293       C  0.60713893  0.61594629  0.94643943    -0.15330
C2294       C  0.62288076  0.59581254  0.96944370     0.37000
N2295       N  0.65694853  0.59168271  0.97327737    -0.89580
H2296       H  0.61815597  0.56541715  0.00793821     0.18110
H2297       H  0.55965567  0.63181109  0.93013588     0.18100
N2298       N  0.52162662  0.59749362  0.96070606    -0.88610
H2299       H  0.66417177  0.60357445  0.99254385     0.35480
H2300       H  0.66918077  0.60092575  0.95573037     0.40580
H2301       H  0.51170622  0.57986132  0.97382491     0.40200
H2302       H  0.51710401  0.59025801  0.93883916     0.35090
C2303       C  0.59794803  0.48077269  0.06607953    -0.26640
C2304       C  0.56630324  0.49034096  0.06965273    -0.14720
C2305       C  0.55008689  0.47340666  0.09196305     0.35910
C2306       C  0.56755701  0.45438706  0.11356284    -0.26090
C2307       C  0.59922439  0.44318009  0.10993735    -0.15330
C2308       C  0.61346222  0.45632723  0.08376876     0.37000
N2309       N  0.64328792  0.44502868  0.07333823    -0.89580
H2310       H  0.61140246  0.49191825  0.04897290     0.18110
H2311       H  0.55487983  0.44659785  0.13245082     0.18100
N2312       N  0.51592409  0.47171226  0.09170430    -0.88610
H2313       H  0.65815893  0.46451405  0.07123281     0.35480
H2314       H  0.63938030  0.43556744  0.05217302     0.40580
H2315       H  0.50510232  0.48129954  0.07200780     0.40200
H2316       H  0.50742126  0.48380565  0.11006994     0.35090
C2317       C  0.44194821  0.66222126  0.18303694    -0.26640
C2318       C  0.46600050  0.67967138  0.17029067    -0.14720
C2319       C  0.46827690  0.67857087  0.13896015     0.35910
C2320       C  0.44587564  0.66182540  0.12167145    -0.26090
C2321       C  0.42140636  0.64376500  0.13408601    -0.15330
C2322       C  0.42103965  0.64334070  0.16604800     0.37000
N2323       N  0.40194890  0.62190339  0.18228581    -0.89580
H2324       H  0.44033874  0.66176474  0.20703697     0.18110
H2325       H  0.44904253  0.66121064  0.09790788     0.18100
N2326       N  0.49459802  0.69151133  0.12400664    -0.88610
H2327       H  0.38821196  0.63534460  0.19673677     0.35480
H2328       H  0.41715919  0.60636011  0.19524711     0.40580
H2329       H  0.51590548  0.68340169  0.13496651     0.40200
H2330       H  0.49296070  0.71648242  0.12398924     0.35090
C2331       C  0.53665907  0.67822237  0.28901660    -0.26640
C2332       C  0.54454272  0.67829428  0.25910823    -0.14720
C2333       C  0.57550116  0.66737465  0.25217255     0.35910
C2334       C  0.59637872  0.65456149  0.27480649    -0.26090
C2335       C  0.58716752  0.64928664  0.30456017    -0.15330
C2336       C  0.55776457  0.66497493  0.31168580     0.37000
N2337       N  0.54908862  0.66859609  0.34173430    -0.89580
H2338       H  0.51420573  0.68941315  0.29501252     0.18110
H2339       H  0.62021970  0.64821046  0.26827325     0.18100
N2340       N  0.58718695  0.66959853  0.22257241    -0.88610
H2341       H  0.52686633  0.65847546  0.34420143     0.35480
H2342       H  0.54658539  0.69312364  0.34584465     0.40580
H2343       H  0.57014453  0.67946564  0.20719051     0.40200
H2344       H  0.59227697  0.64624160  0.21569814     0.35090
C2345       C  0.57011722  0.77233424  0.20147192    -0.26640
C2346       C  0.53711057  0.77247497  0.19469667    -0.14720
C2347       C  0.52361262  0.79802486  0.17658484     0.35910
C2348       C  0.54382312  0.81931184  0.16242251    -0.26090
C2349       C  0.57757409  0.81608952  0.16580399    -0.15330
C2350       C  0.58989111  0.79436484  0.18855744     0.37000
N2351       N  0.62326088  0.79264423  0.19689730    -0.89580
H2352       H  0.58157766  0.75373030  0.21567811     0.18110
H2353       H  0.53240630  0.83881311  0.14949681     0.18100
N2354       N  0.48975623  0.80419889  0.17317962    -0.88610
H2355       H  0.63219065  0.76941632  0.19321920     0.35480
H2356       H  0.62577226  0.79686434  0.21970510     0.40580
H2357       H  0.47731074  0.78994533  0.18772938     0.40200
H2358       H  0.48255362  0.79883107  0.15135522     0.35090
C2359       C  0.63761019  0.48751653  0.18965289    -0.26640
C2360       C  0.67018071  0.48161800  0.19609261    -0.14720
C2361       C  0.68411171  0.45260318  0.18734686     0.35910
C2362       C  0.66624416  0.43180583  0.16982610    -0.26090
C2363       C  0.63508181  0.44018768  0.15807917    -0.15330
C2364       C  0.61958467  0.46629681  0.17243348     0.37000
N2365       N  0.58556548  0.47035789  0.17143066    -0.89580
H2366       H  0.62605159  0.50890020  0.19809299     0.18110
H2367       H  0.67796189  0.40934040  0.16471617     0.18100
N2368       N  0.71642047  0.44395299  0.19618559    -0.88610
H2369       H  0.57825976  0.49082954  0.18272611     0.35480
H2370       H  0.57665653  0.45077100  0.18288287     0.40580
H2371       H  0.71640737  0.42163356  0.20716345     0.40200
H2372       H  0.72921912  0.44104912  0.17694133     0.35090
C2373       C  0.80315044  0.59159564  0.18452863    -0.26640
C2374       C  0.80127732  0.59283848  0.15283872    -0.14720
C2375       C  0.77599773  0.57550796  0.13888026     0.35910
C2376       C  0.75310061  0.56112314  0.15628958    -0.26090
C2377       C  0.75498001  0.56130556  0.18756810    -0.15330
C2378       C  0.78184198  0.57483208  0.20158446     0.37000
N2379       N  0.78827199  0.57236076  0.23318928    -0.89580
H2380       H  0.82020419  0.60496326  0.19729966     0.18110
H2381       H  0.73303114  0.55026790  0.14493632     0.18100
N2382       N  0.77145169  0.57300893  0.10715700    -0.88610
H2383       H  0.81164713  0.56318544  0.23674332     0.35480
H2384       H  0.77435386  0.55485358  0.24241429     0.40580
H2385       H  0.79037393  0.58162274  0.09561409     0.40200
H2386       H  0.75105548  0.58681816  0.10047230     0.35090
C2387       C  0.63768872  0.56999044  0.26571311    -0.26640
C2388       C  0.67093243  0.57165283  0.26620361    -0.14720
C2389       C  0.68563968  0.59082148  0.28801922     0.35910
C2390       C  0.66676188  0.60907196  0.30745669    -0.26090
C2391       C  0.63298560  0.60733735  0.30724766    -0.15330
C2392       C  0.61908239  0.58618226  0.28603726     0.37000
N2393       N  0.58530176  0.58227585  0.28367353    -0.89580
H2394       H  0.62541564  0.55617716  0.24890096     0.18110
H2395       H  0.67928261  0.62350923  0.32336528     0.18100
N2396       N  0.71976777  0.59076757  0.29124574    -0.88610
H2397       H  0.58092955  0.55793179  0.28680641     0.35480
H2398       H  0.57702381  0.58915845  0.26215348     0.40580
H2399       H  0.72722371  0.56758324  0.29827590     0.40200
H2400       H  0.72699048  0.60609041  0.30816495     0.35090
C2401       C  0.30122365  0.35544263  0.04399868    -0.26640
C2402       C  0.33509871  0.35509744  0.04512347    -0.14720
C2403       C  0.35058133  0.33726245  0.02306995     0.35910
C2404       C  0.33272318  0.32328828  0.99991786    -0.26090
C2405       C  0.29909613  0.32422653  0.99886566    -0.15330
C2406       C  0.28349891  0.33888672  0.02258026     0.37000
N2407       N  0.25004879  0.33594144  0.02686054    -0.89580
H2408       H  0.28749445  0.36927794  0.05921994     0.18110
H2409       H  0.34557769  0.31199447  0.98231793     0.18100
N2410       N  0.38469550  0.33424526  0.02345434    -0.88610
H2411       H  0.24416870  0.31191060  0.02470145     0.35480
H2412       H  0.23660314  0.35022062  0.01143785     0.40580
H2413       H  0.39236251  0.34385499  0.00344229     0.40200
H2414       H  0.39120258  0.30981780  0.02442639     0.35090
C2415       C  0.08717393  0.37882138  0.78685269    -0.26640
C2416       C  0.08866855  0.34567300  0.78493583    -0.14720
C2417       C  0.11630708  0.32868077  0.79685003     0.35910
C2418       C  0.13583235  0.34314866  0.81810823    -0.26090
C2419       C  0.13020641  0.37517530  0.82571140    -0.15330
C2420       C  0.10870452  0.39402423  0.80599929     0.37000
N2421       N  0.10630021  0.42830308  0.80737656    -0.89580
H2422       H  0.06766168  0.39269679  0.77581498     0.18110
H2423       H  0.15498594  0.32878394  0.82871112     0.18100
N2424       N  0.12509302  0.29679335  0.78799805    -0.88610
H2425       H  0.08292173  0.43515008  0.81221255     0.35480
H2426       H  0.11078212  0.43776058  0.78632219     0.40580
H2427       H  0.11016467  0.28914446  0.77056859     0.40200
H2428       H  0.12329607  0.28134235  0.80635738     0.35090
C2429       C  0.18907217  0.32107490  0.90374454    -0.26640
C2430       C  0.21739966  0.33569872  0.91291450    -0.14720
C2431       C  0.21996436  0.36868756  0.90618249     0.35910
C2432       C  0.19505024  0.38555368  0.89048450    -0.26090
C2433       C  0.16805485  0.37052298  0.87742874    -0.15330
C2434       C  0.16421891  0.33782495  0.88698440     0.37000
N2435       N  0.13512061  0.32119212  0.88274097    -0.89580
H2436       H  0.18592502  0.29622062  0.91012178     0.18110
H2437       H  0.19881286  0.41066690  0.88596588     0.18100
N2438       N  0.24870533  0.38544429  0.91237514    -0.88610
H2439       H  0.13947781  0.30104139  0.86985809     0.35480
H2440       H  0.11774294  0.33555622  0.87177689     0.40580
H2441       H  0.26800595  0.37227862  0.90428588     0.40200
H2442       H  0.25215118  0.38843343  0.93520942     0.35090
C2443       C  0.31459239  0.19394443  0.89855512    -0.26640
C2444       C  0.34379817  0.20365529  0.88702965    -0.14720
C2445       C  0.35497012  0.23344480  0.89776888     0.35910
C2446       C  0.33425880  0.25494907  0.91160069    -0.26090
C2447       C  0.30297226  0.24717400  0.91746140    -0.15330
C2448       C  0.29344623  0.21560520  0.91208490     0.37000
N2449       N  0.26311337  0.20431740  0.92067435    -0.89580
H2450       H  0.30723245  0.16954152  0.89661273     0.18110
H2451       H  0.34294198  0.27810537  0.91809104     0.18100
N2452       N  0.38752181  0.24207060  0.89559069    -0.88610
H2453       H  0.25015257  0.19865944  0.90122346     0.35480
H2454       H  0.24980593  0.22208568  0.93109960     0.40580
H2455       H  0.39709305  0.24503037  0.91716947     0.40200
H2456       H  0.38795911  0.26432963  0.88454643     0.35090
C2457       C  0.61918843  0.44194109  0.88375713    -0.26640
C2458       C  0.59472491  0.42715995  0.86594907    -0.14720
C2459       C  0.59744778  0.43064205  0.83469275     0.35910
C2460       C  0.62430923  0.44483450  0.82306070    -0.26090
C2461       C  0.65097966  0.45370499  0.84092242    -0.15330
C2462       C  0.64811446  0.45231203  0.87193209     0.37000
N2463       N  0.67545117  0.45744865  0.89138454    -0.89580
H2464       H  0.61781819  0.44104092  0.90772644     0.18110
H2465       H  0.62484393  0.44710678  0.79909458     0.18100
N2466       N  0.57409116  0.41894793  0.81397980    -0.88610
H2467       H  0.66960140  0.45490044  0.91365156     0.35480
H2468       H  0.68262612  0.48091125  0.88841892     0.40580
H2469       H  0.58521708  0.40205005  0.80061914     0.40200
H2470       H  0.56536214  0.43813232  0.80033059     0.35090
C2471       C  0.52854974  0.33020809  0.84143823    -0.26640
C2472       C  0.50171231  0.34619642  0.82757414    -0.14720
C2473       C  0.49949988  0.38005872  0.83047076     0.35910
C2474       C  0.52405636  0.39644933  0.84543144    -0.26090
C2475       C  0.55132085  0.38085588  0.85985339    -0.15330
C2476       C  0.55240468  0.34646306  0.85801819     0.37000
N2477       N  0.57577798  0.32701275  0.87468008    -0.89580
H2478       H  0.53057782  0.30428577  0.84036385     0.18110
H2479       H  0.52086657  0.42222600  0.84724951     0.18100
N2480       N  0.47136600  0.39858118  0.82105535    -0.88610
H2481       H  0.58728725  0.31191960  0.85991946     0.35480
H2482       H  0.56398895  0.31248307  0.88957073     0.40580
H2483       H  0.45134557  0.38748741  0.82898941     0.40200
H2484       H  0.46961053  0.40048089  0.79792111     0.35090
C2485       C  0.39004419  0.25793537  0.82190368    -0.26640
C2486       C  0.42335802  0.25366288  0.82189024    -0.14720
C2487       C  0.43657146  0.22293178  0.82965720     0.35910
C2488       C  0.41666245  0.19904532  0.84039180    -0.26090
C2489       C  0.38363419  0.20467629  0.84483630    -0.15330
C2490       C  0.37009893  0.23383578  0.83155046     0.37000
N2491       N  0.33638248  0.24072037  0.82799916    -0.89580
H2492       H  0.37908026  0.28054125  0.81392708     0.18110
H2493       H  0.42793463  0.17592642  0.84552895     0.18100
N2494       N  0.46981661  0.21474913  0.82672078    -0.88610
H2495       H  0.33040139  0.25931807  0.84221129     0.35480
H2496       H  0.32310611  0.22112824  0.83335323     0.40580
H2497       H  0.48212761  0.23397400  0.81824555     0.40200
H2498       H  0.47125694  0.19658497  0.81109941     0.35090
C2499       C  0.43834507  0.34902673  0.71857121    -0.26640
C2500       C  0.42202662  0.33245242  0.74015458    -0.14720
C2501       C  0.38833090  0.33090882  0.73609550     0.35910
C2502       C  0.37278253  0.34383375  0.71027607    -0.26090
C2503       C  0.38849471  0.36193811  0.68885064    -0.15330
C2504       C  0.42225735  0.36521441  0.69432727     0.37000
N2505       N  0.44069030  0.38650934  0.67724120    -0.89580
H2506       H  0.46394714  0.35113260  0.72134273     0.18110
H2507       H  0.34718940  0.34179237  0.70813180     0.18100
N2508       N  0.36840635  0.31961076  0.75891700    -0.88610
H2509       H  0.45954333  0.37324426  0.66844833     0.35480
H2510       H  0.45031077  0.40357904  0.69144998     0.40580
H2511       H  0.37525378  0.32967322  0.77921592     0.40200
H2512       H  0.36973451  0.29464634  0.76040119     0.35090
C2513       C  0.32955319  0.53071852  0.79184499    -0.26640
C2514       C  0.29716730  0.52629052  0.79670112    -0.14720
C2515       C  0.28226003  0.54519208  0.81847124     0.35910
C2516       C  0.30048511  0.56498079  0.83619155    -0.26090
C2517       C  0.33369062  0.56668828  0.83362803    -0.15330
C2518       C  0.34792894  0.55067326  0.80953039     0.37000
N2519       N  0.38118778  0.55397152  0.80360915    -0.89580
H2520       H  0.34170396  0.51695396  0.77558028     0.18110
H2521       H  0.28781586  0.57882445  0.85223448     0.18100
N2522       N  0.24854521  0.54642050  0.82270613    -0.88610
H2523       H  0.38734383  0.54154127  0.78460337     0.35480
H2524       H  0.39509914  0.54370544  0.82129731     0.40580
H2525       H  0.24415312  0.53460764  0.84275714     0.40200
H2526       H  0.23593673  0.53603474  0.80526139     0.35090
C2527       C  0.22200158  0.40664556  0.80574035    -0.26640
C2528       C  0.21950583  0.43946327  0.79982609    -0.14720
C2529       C  0.19323116  0.45738487  0.81085553     0.35910
C2530       C  0.17103542  0.44207758  0.82800515    -0.26090
C2531       C  0.17333426  0.40890760  0.83431323    -0.15330
C2532       C  0.19957985  0.39123141  0.82232004     0.37000
N2533       N  0.20459016  0.35745410  0.82775644    -0.89580
H2534       H  0.24222719  0.39265851  0.79819268     0.18110
H2535       H  0.15115096  0.45663483  0.83503587     0.18100
N2536       N  0.18719691  0.49087995  0.80427727    -0.88610
H2537       H  0.22682220  0.35351799  0.83885123     0.35480
H2538       H  0.20531342  0.34615765  0.80722242     0.40580
H2539       H  0.20276063  0.49946916  0.78897479     0.40200
H2540       H  0.19075976  0.50334968  0.82401411     0.35090
C2541       C  0.29158142  0.41788653  0.70437548    -0.26640
C2542       C  0.30575247  0.43896952  0.72430286    -0.14720
C2543       C  0.33962186  0.43967546  0.72575160     0.35910
C2544       C  0.35748368  0.42176399  0.70604170    -0.26090
C2545       C  0.34340195  0.40201263  0.68444897    -0.15330
C2546       C  0.30952213  0.39837661  0.68570825     0.37000
N2547       N  0.29310048  0.37368375  0.67002114    -0.89580
H2548       H  0.26620919  0.41487033  0.70464391     0.18110
H2549       H  0.38323389  0.42314486  0.70777590     0.18100
N2550       N  0.35719715  0.45658937  0.74803826    -0.88610
H2551       H  0.26841948  0.37609187  0.67182376     0.35480
H2552       H  0.29988893  0.35171971  0.68034587     0.40580
H2553       H  0.34808122  0.45208751  0.76892832     0.40200
H2554       H  0.35593133  0.48097205  0.74255046     0.35090
C2555       C  0.50030150  0.41540972  0.93213358    -0.26640
C2556       C  0.49953618  0.44852616  0.93646352    -0.14720
C2557       C  0.52419957  0.46679087  0.92471116     0.35910
C2558       C  0.54666369  0.45206074  0.90661368    -0.26090
C2559       C  0.54763574  0.41861189  0.90204107    -0.15330
C2560       C  0.52432537  0.40009886  0.91641299     0.37000
N2561       N  0.52422443  0.36569583  0.91421548    -0.89580
H2562       H  0.48148063  0.40111154  0.94055629     0.18110
H2563       H  0.56375029  0.46736701  0.89680795     0.18100
N2564       N  0.52812044  0.50000717  0.93152778    -0.88610
H2565       H  0.50402786  0.35631126  0.92350950     0.35480
H2566       H  0.54372986  0.35591481  0.92681610     0.40580
H2567       H  0.51358195  0.50747816  0.94851234     0.40200
H2568       H  0.52197878  0.51376423  0.91233347     0.35090
C2569       C  0.39141273  0.57668293  0.90249934    -0.26640
C2570       C  0.37565407  0.56334077  0.87705836    -0.14720
C2571       C  0.37564883  0.52856251  0.87733044     0.35910
C2572       C  0.39196675  0.51035015  0.89996806    -0.26090
C2573       C  0.40750551  0.52420237  0.92404938    -0.15330
C2574       C  0.40756584  0.55793384  0.92530516     0.37000
N2575       N  0.42284968  0.57406984  0.94968985    -0.89580
H2576       H  0.38930270  0.60221690  0.90615641     0.18110
H2577       H  0.39181205  0.48436830  0.89899075     0.18100
N2578       N  0.35724630  0.51042269  0.85658534    -0.88610
H2579       H  0.44137293  0.58709802  0.94115232     0.35480
H2580       H  0.43328757  0.55772206  0.96536926     0.40580
H2581       H  0.34082505  0.49723900  0.86817354     0.40200
H2582       H  0.37255456  0.49426342  0.84617921     0.35090
C2583       C  0.37568521  0.43697713  0.00338285    -0.26640
C2584       C  0.40892952  0.43977261  0.00682098    -0.14720
C2585       C  0.42481415  0.42177220  0.03068148     0.35910
C2586       C  0.40786378  0.40011015  0.04801513    -0.26090
C2587       C  0.37418847  0.39888123  0.04605087    -0.15330
C2588       C  0.35838252  0.41786878  0.02275630     0.37000
N2589       N  0.32437337  0.41780969  0.01841440    -0.89580
H2590       H  0.36259176  0.44950242  0.98517696     0.18110
H2591       H  0.42152161  0.38529598  0.06423420     0.18100
N2592       N  0.45752890  0.42640914  0.03975416    -0.88610
H2593       H  0.31899028  0.40994742  0.99690042     0.35480
H2594       H  0.31540078  0.44139069  0.01988560     0.40580
H2595       H  0.46594282  0.44769205  0.03094483     0.40200
H2596       H  0.47133182  0.40690208  0.03268870     0.35090
C2597       C  0.85433011  0.11946253  0.09279973    -0.26640
C2598       C  0.88557144  0.13214855  0.09419063    -0.14720
C2599       C  0.89349048  0.15196827  0.06985548     0.35910
C2600       C  0.87012996  0.16091287  0.04769409    -0.26090
C2601       C  0.83861133  0.15053541  0.04876866    -0.15330
C2602       C  0.83119077  0.12821437  0.07083603     0.37000
N2603       N  0.80003487  0.11513232  0.07287798    -0.89580
H2604       H  0.84727368  0.10119196  0.10826201     0.18110
H2605       H  0.87600363  0.17826625  0.03068313     0.18100
N2606       N  0.92510038  0.16334339  0.06749592    -0.88610
H2607       H  0.80271205  0.09020267  0.07137995     0.35480
H2608       H  0.78481968  0.12246034  0.05497127     0.40580
H2609       H  0.92372145  0.18842373  0.06650285     0.40200
H2610       H  0.93391707  0.15535478  0.04744072     0.35090
C2611       C  0.66007242  0.11755043  0.88128579    -0.26640
C2612       C  0.64459982  0.13623940  0.85766223    -0.14720
C2613       C  0.64506788  0.17009245  0.85988826     0.35910
C2614       C  0.66228540  0.18355547  0.88326719    -0.26090
C2615       C  0.67701753  0.16491095  0.90672510    -0.15330
C2616       C  0.67618303  0.13139595  0.90557595     0.37000
N2617       N  0.69086180  0.11155252  0.92915674    -0.89580
H2618       H  0.65920025  0.09165012  0.88076877     0.18110
H2619       H  0.66259606  0.20951612  0.88353952     0.18100
N2620       N  0.62624602  0.19148268  0.84042328    -0.88610
H2621       H  0.68851369  0.08726544  0.92448075     0.35480
H2622       H  0.67828926  0.11578908  0.94835107     0.40580
H2623       H  0.64133720  0.20788614  0.83090497     0.40200
H2624       H  0.61007226  0.20432253  0.85311422     0.35090
C2625       C  0.68793553  0.37435245  0.09420745    -0.26640
C2626       C  0.67094745  0.34926013  0.08205244    -0.14720
C2627       C  0.63816312  0.34827701  0.08451286     0.35910
C2628       C  0.62300471  0.37190420  0.10038022    -0.26090
C2629       C  0.63928821  0.39656998  0.11537991    -0.15330
C2630       C  0.67283237  0.39879247  0.10968263     0.37000
N2631       N  0.69118646  0.42719285  0.11316625    -0.89580
H2632       H  0.71293054  0.37630473  0.08962754     0.18110
H2633       H  0.59778644  0.37044486  0.10071285     0.18100
N2634       N  0.62010261  0.32390987  0.06988332    -0.88610
H2635       H  0.71057321  0.42252324  0.12814611     0.35480
H2636       H  0.67795398  0.44746336  0.11904549     0.40580
H2637       H  0.62152661  0.32764418  0.04692357     0.40200
H2638       H  0.59592634  0.32614399  0.07445717     0.35090
C2639       C  0.65217391  0.35907755  0.90798865    -0.26640
C2640       C  0.65186854  0.36132160  0.93900149    -0.14720
C2641       C  0.62478918  0.37458743  0.95203601     0.35910
C2642       C  0.59864249  0.38517801  0.93375793    -0.26090
C2643       C  0.59787932  0.38230838  0.90217304    -0.15330
C2644       C  0.62577785  0.36874981  0.88964719     0.37000
N2645       N  0.62804557  0.36613912  0.85803396    -0.89580
H2646       H  0.67262977  0.34782752  0.89791710     0.18110
H2647       H  0.57947215  0.39675598  0.94515172     0.18100
N2648       N  0.62267918  0.37734559  0.98374577    -0.88610
H2649       H  0.63364253  0.34222424  0.85328802     0.35480
H2650       H  0.64718838  0.37965355  0.85152450     0.40580
H2651       H  0.64391852  0.36997719  0.99513934     0.40200
H2652       H  0.60506169  0.36202549  0.99057795     0.35090
C2653       C  0.78927126  0.35901814  0.10989585    -0.26640
C2654       C  0.80731619  0.34585599  0.08724164    -0.14720
C2655       C  0.84072786  0.34367713  0.09106839     0.35910
C2656       C  0.85528743  0.35567031  0.11632939    -0.26090
C2657       C  0.83807252  0.37371157  0.13705724    -0.15330
C2658       C  0.80425418  0.37266532  0.13508501     0.37000
N2659       N  0.78506196  0.38321901  0.15878947    -0.89580
H2660       H  0.76356194  0.35765784  0.10857258     0.18110
H2661       H  0.88112716  0.35465192  0.11757363     0.18100
N2662       N  0.86085316  0.33066791  0.06896964    -0.88610
H2663       H  0.77305944  0.36346774  0.16676142     0.35480
H2664       H  0.76774927  0.39976517  0.14996326     0.40580
H2665       H  0.85470793  0.34193915  0.04845890     0.40200
H2666       H  0.85761736  0.30608068  0.06746439     0.35090
C2667       C  0.87057196  0.12393434  0.15685246    -0.26640
C2668       C  0.89300106  0.10271601  0.14350552    -0.14720
C2669       C  0.89277406  0.06969319  0.15243612     0.35910
C2670       C  0.86708906  0.05907574  0.16839986    -0.26090
C2671       C  0.84150916  0.07967173  0.17577261    -0.15330
C2672       C  0.84423362  0.11270729  0.17160316     0.37000
N2673       N  0.82028183  0.13467002  0.18209382    -0.89580
H2674       H  0.87122535  0.14948127  0.15233943     0.18110
H2675       H  0.86715096  0.03398783  0.17511034     0.18100
N2676       N  0.91811375  0.04635753  0.14816930    -0.88610
H2677       H  0.82574186  0.15835693  0.17694326     0.35480
H2678       H  0.82082960  0.13259603  0.20532251     0.40580
H2679       H  0.93732559  0.05527659  0.13742121     0.40200
H2680       H  0.90916047  0.02752747  0.13573690     0.35090
C2681       C  0.63200872  0.06033689  0.35930991    -0.26640
C2682       C  0.64628489  0.07886604  0.33770741    -0.14720
C2683       C  0.65471439  0.11041418  0.34513007     0.35910
C2684       C  0.65147411  0.12132523  0.37404353    -0.26090
C2685       C  0.63487988  0.10431995  0.39568353    -0.15330
C2686       C  0.62511241  0.07277504  0.38746830     0.37000
N2687       N  0.60737291  0.05311597  0.40672878    -0.89580
H2688       H  0.62652856  0.03569980  0.35451833     0.18110
H2689       H  0.65864948  0.14550881  0.37850354     0.18100
N2690       N  0.66608289  0.13257918  0.32347431    -0.88610
H2691       H  0.62025669  0.03147138  0.41081479     0.35480
H2692       H  0.58572818  0.04806774  0.39572982     0.40580
H2693       H  0.66512209  0.12322565  0.30210020     0.40200
H2694       H  0.68978846  0.13719683  0.32942530     0.35090
C2695       C  0.66367153  0.88347610  0.19318116    -0.26640
C2696       C  0.64368871  0.90821069  0.20411243    -0.14720
C2697       C  0.61092833  0.90308560  0.20469810     0.35910
C2698       C  0.59853138  0.87692014  0.18900379    -0.26090
C2699       C  0.61821090  0.85609708  0.17200297    -0.15330
C2700       C  0.65144041  0.85745809  0.17745838     0.37000
N2701       N  0.67294229  0.83318040  0.16709275    -0.89580
H2702       H  0.68925988  0.88538155  0.19515661     0.18110
H2703       H  0.57286692  0.87513485  0.18703539     0.18100
N2704       N  0.59011947  0.92593396  0.21837915    -0.88610
H2705       H  0.68502513  0.82241535  0.18568848     0.35480
H2706       H  0.69000636  0.84421207  0.15449606     0.40580
H2707       H  0.59584902  0.92509775  0.24124099     0.40200
H2708       H  0.56641797  0.91917791  0.21584652     0.35090
C2709       C  0.86183395  0.09883828  0.31451952    -0.26640
C2710       C  0.83411540  0.10619909  0.29800601    -0.14720
C2711       C  0.82261813  0.13879007  0.29658062     0.35910
C2712       C  0.83727392  0.16202393  0.31459064    -0.26090
C2713       C  0.86306345  0.15411516  0.33472110    -0.15330
C2714       C  0.87705154  0.12186576  0.33176308     0.37000
N2715       N  0.90724997  0.11142602  0.34524085    -0.89580
H2716       H  0.87147463  0.07435827  0.31496095     0.18110
H2717       H  0.82817605  0.18661990  0.31287237     0.18100
N2718       N  0.79605610  0.14917723  0.27711005    -0.88610
H2719       H  0.90370362  0.09120009  0.35865508     0.35480
H2720       H  0.92219996  0.10393303  0.32850722     0.40580
H2721       H  0.78925772  0.13082134  0.26301111     0.40200
H2722       H  0.80396633  0.16721554  0.26303236     0.35090
C2723       C  0.60369428  0.94666680  0.32641212    -0.26640
C2724       C  0.62838248  0.93112545  0.31154730    -0.14720
C2725       C  0.62669483  0.89817875  0.30622869     0.35910
C2726       C  0.60216923  0.88091978  0.31853637    -0.26090
C2727       C  0.57976671  0.89535602  0.33746588    -0.15330
C2728       C  0.57966316  0.92939757  0.33966420     0.37000
N2729       N  0.55764572  0.94659869  0.35737794    -0.89580
H2730       H  0.60412651  0.97238484  0.32940939     0.18110
H2731       H  0.60251238  0.85519390  0.31576689     0.18100
N2732       N  0.65021964  0.88220864  0.28889287    -0.88610
H2733       H  0.54549348  0.96404042  0.34381261     0.35480
H2734       H  0.57056835  0.95825808  0.37410101     0.40580
H2735       H  0.64790352  0.89185308  0.26726407     0.40200
H2736       H  0.64572092  0.85778456  0.28728753     0.35090
C2737       C  0.07495612  0.91251967  0.39558659    -0.26640
C2738       C  0.07389485  0.94588541  0.39459701    -0.14720
C2739       C  0.10037995  0.96209879  0.38420212     0.35910
C2740       C  0.12644435  0.94423874  0.37363425    -0.26090
C2741       C  0.12741176  0.91017535  0.37366153    -0.15330
C2742       C  0.10172999  0.89462178  0.38792008     0.37000
N2743       N  0.10067623  0.86065888  0.39421272    -0.89580
H2744       H  0.05559217  0.89998604  0.40542671     0.18110
H2745       H  0.14502382  0.95775001  0.36403777     0.18100
N2746       N  0.10208666  0.99647081  0.38457736    -0.88610
H2747       H  0.09772984  0.85762325  0.41706388     0.35480
H2748       H  0.12184591  0.84834320  0.39052418     0.40580
H2749       H  0.08144601  0.00715757  0.39261551     0.40200
H2750       H  0.10329749  0.00458147  0.36253804     0.35090
C2751       C  0.30136990  0.85895984  0.49987139    -0.26640
C2752       C  0.29740306  0.82568988  0.50022102    -0.14720
C2753       C  0.30897389  0.80789247  0.52571186     0.35910
C2754       C  0.32811019  0.82267662  0.54732502    -0.26090
C2755       C  0.33251318  0.85634858  0.54753984    -0.15330
C2756       C  0.31691874  0.87457303  0.52333927     0.37000
N2757       N  0.31665589  0.90897346  0.52104277    -0.89580
H2758       H  0.29273288  0.87344465  0.48078024     0.18110
H2759       H  0.33956135  0.80658228  0.56374246     0.18100
N2760       N  0.30103885  0.77508372  0.53119557    -0.88610
H2761       H  0.33197942  0.91548234  0.50439352     0.35480
H2762       H  0.32403625  0.91936224  0.54080367     0.40580
H2763       H  0.28268176  0.76783033  0.51673113     0.40200
H2764       H  0.32139252  0.76047705  0.52846196     0.35090
C2765       C  0.22232364  0.83116503  0.37825221    -0.26640
C2766       C  0.22196918  0.83119321  0.40944435    -0.14720
C2767       C  0.19685105  0.84880059  0.42233016     0.35910
C2768       C  0.17572176  0.86850938  0.40421806    -0.26090
C2769       C  0.17491060  0.86789304  0.37260323    -0.15330
C2770       C  0.19933744  0.84804267  0.35996676     0.37000
N2771       N  0.20341782  0.84544588  0.32864817    -0.89580
H2772       H  0.24149868  0.81878286  0.36736432     0.18110
H2773       H  0.15912511  0.88374216  0.41556589     0.18100
N2774       N  0.19216690  0.84619826  0.45377893    -0.88610
H2775       H  0.21334076  0.86617259  0.32038871     0.35480
H2776       H  0.18210558  0.84033859  0.31736931     0.40580
H2777       H  0.18676201  0.82241047  0.45858108     0.40200
H2778       H  0.17252582  0.86037356  0.45973330     0.35090
C2779       C  0.40086823  0.93691961  0.52037895    -0.26640
C2780       C  0.40951605  0.91867916  0.49596530    -0.14720
C2781       C  0.40534395  0.88500801  0.49847549     0.35910
C2782       C  0.39303636  0.87127806  0.52444456    -0.26090
C2783       C  0.38133759  0.88960550  0.54826976    -0.15330
C2784       C  0.38710060  0.92368269  0.54584051     0.37000
N2785       N  0.37958991  0.94677449  0.56781261    -0.89580
H2786       H  0.40447174  0.96253583  0.51958845     0.18110
H2787       H  0.38975532  0.84561401  0.52470021     0.18100
N2788       N  0.41029461  0.86405955  0.47409350    -0.88610
H2789       H  0.39440339  0.94306404  0.58682001     0.35480
H2790       H  0.35534762  0.94803129  0.57189661     0.40580
H2791       H  0.43460829  0.86081127  0.47091488     0.40200
H2792       H  0.39877181  0.87404157  0.45485293     0.35090
C2793       C  0.51496794  0.90935282  0.42593138    -0.26640
C2794       C  0.48659691  0.92154096  0.41163708    -0.14720
C2795       C  0.48281667  0.91697677  0.38076407     0.35910
C2796       C  0.50742268  0.90266670  0.36514704    -0.26090
C2797       C  0.53628986  0.88914947  0.37857827    -0.15330
C2798       C  0.53946615  0.89351806  0.41027884     0.37000
N2799       N  0.56779088  0.88359045  0.42723322    -0.89580
H2800       H  0.51851914  0.91252857  0.44968554     0.18110
H2801       H  0.50298409  0.90433458  0.34178999     0.18100
N2802       N  0.45353418  0.92511444  0.36426833    -0.88610
H2803       H  0.56150951  0.86767227  0.44408244     0.35480
H2804       H  0.57736015  0.90375847  0.43723066     0.40580
H2805       H  0.45029376  0.94992886  0.36206743     0.40200
H2806       H  0.43450917  0.91540140  0.37523874     0.35090
C2807       C  0.37014446  0.01104418  0.41114082    -0.26640
C2808       C  0.40318744  0.01108780  0.41687281    -0.14720
C2809       C  0.41943197  0.03803591  0.40555345     0.35910
C2810       C  0.40304953  0.06134796  0.38638008    -0.26090
C2811       C  0.37006052  0.06001153  0.37862390    -0.15330
C2812       C  0.35364916  0.03501530  0.39330188     0.37000
N2813       N  0.31973896  0.03302848  0.38950300    -0.89580
H2814       H  0.35674483  0.99146945  0.41985760     0.18110
H2815       H  0.41657527  0.08110541  0.37866475     0.18100
N2816       N  0.45236103  0.04322464  0.41364397    -0.88610
H2817       H  0.31001259  0.03381696  0.41050867     0.35480
H2818       H  0.31466467  0.01087085  0.38023561     0.40580
H2819       H  0.46077722  0.02720304  0.43050500     0.40200
H2820       H  0.45346816  0.06584395  0.42319768     0.35090
C2821       C  0.35422580  0.70571302  0.41266292    -0.26640
C2822       C  0.33854277  0.69032637  0.38889772    -0.14720
C2823       C  0.30684103  0.70191858  0.38084207     0.35910
C2824       C  0.29092908  0.72331651  0.39931065    -0.26090
C2825       C  0.30727068  0.74086855  0.42119527    -0.15330
C2826       C  0.34012689  0.73170911  0.42735760     0.37000
N2827       N  0.36122044  0.74947000  0.44611192    -0.89580
H2828       H  0.37893713  0.69948292  0.41832196     0.18110
H2829       H  0.26571357  0.72780390  0.39468403     0.18100
N2830       N  0.29106914  0.69334786  0.35321559    -0.88610
H2831       H  0.35820091  0.74337527  0.46839945     0.35480
H2832       H  0.35793854  0.77407240  0.44164358     0.40580
H2833       H  0.30364888  0.70326767  0.33591803     0.40200
H2834       H  0.26792847  0.70343719  0.35106704     0.35090
C2835       C  0.52449620  0.86176561  0.31330310    -0.26640
C2836       C  0.54489446  0.84801387  0.33613537    -0.14720
C2837       C  0.54918923  0.81387903  0.33400821     0.35910
C2838       C  0.52560175  0.79589231  0.31906015    -0.26090
C2839       C  0.49985326  0.81110535  0.30296286    -0.15330
C2840       C  0.49983888  0.84486475  0.29972790     0.37000
N2841       N  0.47425091  0.86231932  0.28368360    -0.89580
H2842       H  0.52674145  0.88662632  0.30671971     0.18110
H2843       H  0.52843102  0.76997588  0.31866450     0.18100
N2844       N  0.57931034  0.79792996  0.34115625    -0.88610
H2845       H  0.47797144  0.88698628  0.28353003     0.35480
H2846       H  0.45349679  0.85895775  0.29525847     0.40580
H2847       H  0.58872419  0.78994857  0.32134338     0.40200
H2848       H  0.57524847  0.77754717  0.35416966     0.35090
C2849       C  0.37029909  0.72444072  0.34469634    -0.26640
C2850       C  0.37597023  0.69051748  0.34539404    -0.14720
C2851       C  0.39921060  0.67867808  0.32531988     0.35910
C2852       C  0.41637253  0.70008663  0.30780479    -0.26090
C2853       C  0.41114408  0.73334331  0.30902052    -0.15330
C2854       C  0.38737734  0.74538178  0.32723390     0.37000
N2855       N  0.38020062  0.77915155  0.32870589    -0.89580
H2856       H  0.35262631  0.73594081  0.35794459     0.18110
H2857       H  0.43427730  0.69056943  0.29337530     0.18100
N2858       N  0.40641560  0.64493553  0.32315886    -0.88610
H2859       H  0.37311061  0.78776460  0.30738223     0.35480
H2860       H  0.40094348  0.79058506  0.33560452     0.40580
H2861       H  0.40224687  0.63848558  0.30101731     0.40200
H2862       H  0.43080069  0.64087393  0.32809006     0.35090
C2863       C  0.41764503  0.84433871  0.22413562    -0.26640
C2864       C  0.41701077  0.81074676  0.22298119    -0.14720
C2865       C  0.39902112  0.79686007  0.19980573     0.35910
C2866       C  0.38077332  0.81680256  0.17940101    -0.26090
C2867       C  0.38085000  0.85090756  0.18060842    -0.15330
C2868       C  0.40012778  0.86427482  0.20362995     0.37000
N2869       N  0.40062660  0.89836052  0.20730366    -0.89580
H2870       H  0.43069196  0.85556505  0.24207787     0.18110
H2871       H  0.36570406  0.80513390  0.16319222     0.18100
N2872       N  0.39896558  0.76254621  0.19727662    -0.88610
H2873       H  0.42428430  0.90534287  0.20669965     0.35480
H2874       H  0.39247180  0.90356346  0.22838279     0.40580
H2875       H  0.42219003  0.75465967  0.19294914     0.40200
H2876       H  0.38445803  0.75603314  0.17906561     0.35090
C2877       C  0.31149981  0.89591908  0.23274335    -0.26640
C2878       C  0.30007012  0.92706922  0.22561773    -0.14720
C2879       C  0.30174991  0.93778577  0.19609695     0.35910
C2880       C  0.32368162  0.92309052  0.17778531    -0.26090
C2881       C  0.33579243  0.89157894  0.18389584    -0.15330
C2882       C  0.32626975  0.87709280  0.21126785     0.37000
N2883       N  0.33112593  0.84345654  0.21754706    -0.89580
H2884       H  0.30770330  0.88560783  0.25455697     0.18110
H2885       H  0.32904552  0.93632264  0.15817495     0.18100
N2886       N  0.27835955  0.95998781  0.18287623    -0.88610
H2887       H  0.30890630  0.83369401  0.22082936     0.35480
H2888       H  0.34487578  0.84056296  0.23742339     0.40580
H2889       H  0.26077132  0.96571500  0.19784882     0.40200
H2890       H  0.26647321  0.94839167  0.16545691     0.35090
C2891       C  0.19587842  0.92744161  0.28745578    -0.26640
C2892       C  0.22021554  0.94213990  0.30321575    -0.14720
C2893       C  0.22025815  0.94282398  0.33447306     0.35910
C2894       C  0.19568769  0.92859082  0.34932181    -0.26090
C2895       C  0.17197659  0.91136273  0.33395904    -0.15330
C2896       C  0.17325924  0.91028834  0.30197543     0.37000
N2897       N  0.15466075  0.88944295  0.28375725    -0.89580
H2898       H  0.19593224  0.92689281  0.26334531     0.18110
H2899       H  0.19639990  0.92902970  0.37343165     0.18100
N2900       N  0.24608006  0.95624945  0.35136143    -0.88610
H2901       H  0.14225767  0.90331095  0.26714476     0.35480
H2902       H  0.17010131  0.87354502  0.27321058     0.40580
H2903       H  0.25648592  0.93824575  0.36547544     0.40200
H2904       H  0.23664181  0.97426898  0.36459506     0.35090
C2905       C  0.33264805  0.01895618  0.29859215    -0.26640
C2906       C  0.30015342  0.02341478  0.29175333    -0.14720
C2907       C  0.28343736  0.04952606  0.30424106     0.35910
C2908       C  0.29887709  0.06828636  0.32577303    -0.26090
C2909       C  0.33137627  0.06271023  0.33434388    -0.15330
C2910       C  0.34838843  0.03827920  0.31896072     0.37000
N2911       N  0.38195746  0.03222821  0.32435904    -0.89580
H2912       H  0.34592808  0.99907616  0.28931223     0.18110
H2913       H  0.28514558  0.08770170  0.33469818     0.18100
N2914       N  0.25066675  0.05666444  0.29515009    -0.88610
H2915       H  0.39315076  0.03456026  0.30413091     0.35480
H2916       H  0.38563159  0.00853835  0.33213045     0.40580
H2917       H  0.25015361  0.06305590  0.27256874     0.40200
H2918       H  0.24164102  0.07653420  0.30631072     0.35090
C2919       C  0.32677767  0.06514984  0.09008370    -0.26640
C2920       C  0.33542872  0.09487159  0.10205859    -0.14720
C2921       C  0.36735830  0.10412854  0.09693973     0.35910
C2922       C  0.39043920  0.08160769  0.08894859    -0.26090
C2923       C  0.38237106  0.05104422  0.08062031    -0.15330
C2924       C  0.34980801  0.04292640  0.08001464     0.37000
N2925       N  0.33926519  0.01260114  0.06935860    -0.89580
H2926       H  0.30213023  0.05844631  0.08937721     0.18110
H2927       H  0.41455584  0.08941026  0.08607851     0.18100
N2928       N  0.37639374  0.13687568  0.09708471    -0.88610
H2929       H  0.32868984  0.00088375  0.08698061     0.35480
H2930       H  0.35851176  0.99775259  0.06376784     0.40580
H2931       H  0.38297537  0.14327829  0.07565921     0.40200
H2932       H  0.39659611  0.13855651  0.11131240     0.35090
C2933       C  0.57911106  0.05820061  0.88530209    -0.26640
C2934       C  0.56155818  0.07942888  0.90244201    -0.14720
C2935       C  0.56192152  0.11241308  0.89605367     0.35910
C2936       C  0.58023903  0.12342908  0.87263555    -0.26090
C2937       C  0.59907972  0.10236456  0.85536712    -0.15330
C2938       C  0.59856811  0.06898770  0.86288602     0.37000
N2939       N  0.61916287  0.04569243  0.84988353    -0.89580
H2940       H  0.57869052  0.03268010  0.89019321     0.18110
H2941       H  0.58076555  0.14903912  0.86835355     0.18100
N2942       N  0.54370256  0.13455602  0.91323690    -0.88610
H2943       H  0.60507029  0.02809999  0.84030701     0.35480
H2944       H  0.63376482  0.03489171  0.86690935     0.40580
H2945       H  0.51958501  0.12987400  0.90938831     0.40200
H2946       H  0.54671120  0.15813281  0.90582482     0.35090
C2947       C  0.56966070  0.91597852  0.10760530    -0.26640
C2948       C  0.54531332  0.90521773  0.08919519    -0.14720
C2949       C  0.54148604  0.87177819  0.08616306     0.35910
C2950       C  0.56112342  0.85014357  0.10365179    -0.26090
C2951       C  0.58389157  0.86092955  0.12483862    -0.15330
C2952       C  0.59036853  0.89462654  0.12341333     0.37000
N2953       N  0.61939984  0.90759914  0.13510693    -0.89580
H2954       H  0.57472099  0.94134360  0.10753006     0.18110
H2955       H  0.55753616  0.82464813  0.10169910     0.18100
N2956       N  0.51802317  0.85895616  0.06584677    -0.88610
H2957       H  0.61349331  0.92687050  0.14857862     0.35480
H2958       H  0.63157338  0.91716770  0.11735447     0.40580
H2959       H  0.50408562  0.87715718  0.05498359     0.40200
H2960       H  0.50242261  0.84582078  0.07843879     0.35090
C2961       C  0.37395940  0.92529691  0.09055687    -0.26640
C2962       C  0.40702936  0.92351103  0.09078777    -0.14720
C2963       C  0.42425064  0.90946830  0.11549140     0.35910
C2964       C  0.40788495  0.89650127  0.13918682    -0.26090
C2965       C  0.37410188  0.89644149  0.13921262    -0.15330
C2966       C  0.35728726  0.91230487  0.11401559     0.37000
N2967       N  0.32311362  0.91338620  0.11059901    -0.89580
H2968       H  0.36074656  0.93686540  0.07184239     0.18110
H2969       H  0.42243889  0.88398529  0.15615250     0.18100
N2970       N  0.45858265  0.90747441  0.11595873    -0.88610
H2971       H  0.31667839  0.90219883  0.09074145     0.35480
H2972       H  0.31530685  0.93741360  0.10814116     0.40580
H2973       H  0.46523274  0.89265311  0.09863428     0.40200
H2974       H  0.46794971  0.89651455  0.13568325     0.35090
C2975       C  0.43258606  0.13072793  0.90598933    -0.26640
C2976       C  0.41764213  0.10121858  0.90715982    -0.14720
C2977       C  0.38446819  0.10089050  0.90275425     0.35910
C2978       C  0.36740198  0.12912111  0.89481733    -0.26090
C2979       C  0.38291994  0.15746815  0.88669158    -0.15330
C2980       C  0.41531816  0.15910214  0.89707116     0.37000
N2981       N  0.42996881  0.18919838  0.90166141    -0.89580
H2982       H  0.45717863  0.13215425  0.91409120     0.18110
H2983       H  0.34186372  0.12745238  0.89167192     0.18100
N2984       N  0.36782244  0.07181107  0.90703095    -0.88610
H2985       H  0.43473525  0.19134456  0.92452699     0.35480
H2986       H  0.45202763  0.18863704  0.89167654     0.40580
H2987       H  0.35550103  0.06684252  0.88704678     0.40200
H2988       H  0.35094373  0.07584858  0.92310292     0.35090
C2989       C  0.10814718  0.88577482  0.16267381    -0.26640
C2990       C  0.08998345  0.90697323  0.14290686    -0.14720
C2991       C  0.05630603  0.90479757  0.14211606     0.35910
C2992       C  0.04294908  0.87857984  0.15667526    -0.26090
C2993       C  0.06209653  0.85547962  0.17299658    -0.15330
C2994       C  0.09493368  0.86009874  0.17721524     0.37000
N2995       N  0.11570576  0.83987101  0.19635848    -0.89580
H2996       H  0.13375702  0.88742201  0.16490511     0.18110
H2997       H  0.01730072  0.87609181  0.15534333     0.18100
N2998       N  0.03571023  0.92863813  0.12703598    -0.88610
H2999       H  0.13119608  0.82716005  0.18289176     0.35480
H3000       H  0.10342728  0.82313069  0.20851228     0.40580
H3001       H  0.03809139  0.95012195  0.13833528     0.40200
H3002       H  0.01179433  0.92264977  0.12812946     0.35090
C3003       C  0.87068287  0.64155624  0.35215140    -0.26640
C3004       C  0.87592712  0.60794071  0.35136987    -0.14720
C3005       C  0.89774167  0.59612059  0.33049686     0.35910
C3006       C  0.91459080  0.61755139  0.31326798    -0.26090
C3007       C  0.90978246  0.65085379  0.31557592    -0.15330
C3008       C  0.88686893  0.66283491  0.33492437     0.37000
N3009       N  0.87909393  0.69663675  0.33672395    -0.89580
H3010       H  0.85194162  0.65237385  0.36436889     0.18110
H3011       H  0.93159542  0.60788449  0.29803777     0.18100
N3012       N  0.90349182  0.56237353  0.32710049    -0.88610
H3013       H  0.86489694  0.70163808  0.35473171     0.35480
H3014       H  0.86523062  0.70315963  0.31756874     0.40580
H3015       H  0.92782623  0.55710571  0.33114026     0.40200
H3016       H  0.89773054  0.55683267  0.30498640     0.35090
C3017       C  0.87002016  0.61271019  0.17122163    -0.26640
C3018       C  0.84670220  0.63350298  0.15609536    -0.14720
C3019       C  0.85231649  0.66694903  0.15640261     0.35910
C3020       C  0.88094744  0.67762132  0.16908640    -0.26090
C3021       C  0.90414322  0.65651290  0.18264735    -0.15330
C3022       C  0.89801455  0.62380589  0.18492050     0.37000
N3023       N  0.92097341  0.60167108  0.19938111    -0.89580
H3024       H  0.86681475  0.58705914  0.17125836     0.18110
H3025       H  0.88535492  0.70294450  0.16753985     0.18100
N3026       N  0.83073029  0.69038353  0.14219831    -0.88610
H3027       H  0.91376375  0.57806198  0.19708372     0.35480
H3028       H  0.92119095  0.60612558  0.22217842     0.40580
H3029       H  0.84275816  0.70284224  0.12595404     0.40200
H3030       H  0.82397541  0.70690832  0.15815162     0.35090
C3031       C  0.07514788  0.87488988  0.30316794    -0.26640
C3032       C  0.07298351  0.84211620  0.30766260    -0.14720
C3033       C  0.09723348  0.82494558  0.32458618     0.35910
C3034       C  0.12381317  0.84047293  0.33533026    -0.26090
C3035       C  0.12556539  0.87383876  0.33320145    -0.15330
C3036       C  0.10028003  0.89138942  0.31612372     0.37000
N3037       N  0.09858426  0.92573325  0.31148326    -0.89580
H3038       H  0.05640979  0.88815242  0.29035957     0.18110
H3039       H  0.14143058  0.82603192  0.34820799     0.18100
N3040       N  0.09472434  0.79178418  0.33237819    -0.88610
H3041       H  0.09648059  0.93049153  0.28855495     0.35480
H3042       H  0.11921634  0.93677511  0.31839497     0.40580
H3043       H  0.09375113  0.78998386  0.35555054     0.40200
H3044       H  0.11589126  0.77993178  0.32672821     0.35090
C3045       C  0.10572481  0.64698028  0.36682362    -0.26640
C3046       C  0.08985748  0.63254755  0.39062479    -0.14720
C3047       C  0.05599737  0.62930935  0.38592203     0.35910
C3048       C  0.04033765  0.64030986  0.35905117    -0.26090
C3049       C  0.05722527  0.65246201  0.33550289    -0.15330
C3050       C  0.09052118  0.65466505  0.33936111     0.37000
N3051       N  0.10985555  0.66355316  0.31522821    -0.89580
H3052       H  0.13130150  0.64966307  0.36867901     0.18110
H3053       H  0.01456620  0.63950273  0.35669570     0.18100
N3054       N  0.03696608  0.61386951  0.40717073    -0.88610
H3055       H  0.10302192  0.68653628  0.30754184     0.35480
H3056       H  0.10575667  0.64763280  0.29791604     0.40580
H3057       H  0.02624680  0.59433806  0.39708255     0.40200
H3058       H  0.01891871  0.63010879  0.41310698     0.35090
C3059       C  0.82852426  0.65303031  0.42014053    -0.26640
C3060       C  0.79693072  0.65794430  0.40959582    -0.14720
C3061       C  0.78182402  0.63282069  0.39479404     0.35910
C3062       C  0.80031435  0.60567651  0.38664854    -0.26090
C3063       C  0.83395287  0.60455541  0.39121992    -0.15330
C3064       C  0.84678670  0.62622041  0.41224186     0.37000
N3065       N  0.87937064  0.62347764  0.42288858    -0.89580
H3066       H  0.83943475  0.67045010  0.43449864     0.18110
H3067       H  0.78846885  0.58669233  0.37510472     0.18100
N3068       N  0.74806118  0.63506229  0.38792312    -0.88610
H3069       H  0.87978474  0.62194709  0.44613246     0.35480
H3070       H  0.89075022  0.64438412  0.41678008     0.40580
H3071       H  0.73644860  0.63508007  0.40803472     0.40200
H3072       H  0.74069437  0.61480961  0.37651581     0.35090
C3073       C  0.64648405  0.84933766  0.39424790    -0.26640
C3074       C  0.64256365  0.81827818  0.40465353    -0.14720
C3075       C  0.61110672  0.80698146  0.40636357     0.35910
C3076       C  0.58508532  0.82590970  0.39410511    -0.26090
C3077       C  0.58983689  0.85493891  0.37856536    -0.15330
C3078       C  0.62041591  0.86853056  0.38391986     0.37000
N3079       N  0.62454847  0.90245805  0.38268836    -0.89580
H3080       H  0.66955636  0.86011059  0.39718727     0.18110
H3081       H  0.56124667  0.81686936  0.39501686     0.18100
N3082       N  0.60465072  0.77681596  0.42055930    -0.88610
H3083       H  0.64375934  0.90699045  0.36935248     0.35480
H3084       H  0.63077200  0.90995812  0.40414745     0.40580
H3085       H  0.62566613  0.76451008  0.42786338     0.40200
H3086       H  0.59393367  0.76236870  0.40454216     0.35090
C3087       C  0.68679255  0.83674694  0.61415727    -0.26640
C3088       C  0.69788169  0.84769783  0.58752968    -0.14720
C3089       C  0.69461706  0.88081516  0.57988918     0.35910
C3090       C  0.67542462  0.90077830  0.59692072    -0.26090
C3091       C  0.65744029  0.88803963  0.61976448    -0.15330
C3092       C  0.66725439  0.85627582  0.63079832     0.37000
N3093       N  0.65867851  0.84312132  0.65891490    -0.89580
H3094       H  0.69140407  0.81194486  0.62124499     0.18110
H3095       H  0.67213489  0.92584714  0.59035516     0.18100
N3096       N  0.70919691  0.89465717  0.55450152    -0.88610
H3097       H  0.64863801  0.82089209  0.65515706     0.35480
H3098       H  0.67967853  0.83797110  0.67171215     0.40580
H3099       H  0.72487335  0.87816840  0.54513762     0.40200
H3100       H  0.72340497  0.91316482  0.56212024     0.35090
C3101       C  0.64966866  0.67182864  0.34044283    -0.26640
C3102       C  0.62537767  0.65208730  0.35009968    -0.14720
C3103       C  0.61785424  0.65504825  0.38127295     0.35910
C3104       C  0.63874211  0.66997036  0.40098525    -0.26090
C3105       C  0.66567873  0.68495358  0.39177458    -0.15330
C3106       C  0.67067308  0.68699739  0.36076390     0.37000
N3107       N  0.69736210  0.70368787  0.34985847    -0.89580
H3108       H  0.65386480  0.67348499  0.31687923     0.18110
H3109       H  0.63286539  0.67070809  0.42422702     0.18100
N3110       N  0.58907412  0.64562327  0.39489213    -0.88610
H3111       H  0.69719653  0.70343404  0.32661103     0.35480
H3112       H  0.71811358  0.69096665  0.35743522     0.40580
H3113       H  0.57131266  0.63747988  0.38089493     0.40200
H3114       H  0.59476984  0.62801078  0.41128593     0.35090
C3115       C  0.87796910  0.69219493  0.57649035    -0.26640
C3116       C  0.84545049  0.68727552  0.58020619    -0.14720
C3117       C  0.83644694  0.65868254  0.59368989     0.35910
C3118       C  0.85998854  0.63681553  0.60433418    -0.26090
C3119       C  0.89331470  0.64279722  0.60496874    -0.15330
C3120       C  0.90193616  0.67042133  0.58800015     0.37000
N3121       N  0.93426217  0.67846694  0.58282012    -0.89580
H3122       H  0.88485573  0.71299548  0.56374565     0.18110
H3123       H  0.85093673  0.61440708  0.61200780     0.18100
N3124       N  0.80370791  0.64962678  0.59531475    -0.88610
H3125       H  0.93746912  0.67704181  0.55995270     0.35480
H3126       H  0.95071561  0.66249426  0.59319885     0.40580
H3127       H  0.78753964  0.66696120  0.58616045     0.40200
H3128       H  0.79873464  0.64745197  0.61782260     0.35090
C3129       C  0.16983497  0.06505334  0.87219412    -0.26640
C3130       C  0.16180471  0.07089755  0.84164895    -0.14720
C3131       C  0.13087758  0.08294710  0.83403748     0.35910
C3132       C  0.11093825  0.09193831  0.85669627    -0.26090
C3133       C  0.12176915  0.09411142  0.88717961    -0.15330
C3134       C  0.14878918  0.07351536  0.89466556     0.37000
N3135       N  0.15173884  0.05491457  0.92196040    -0.89580
H3136       H  0.19134034  0.05115073  0.87873957     0.18110
H3137       H  0.08690374  0.09924355  0.84956536     0.18100
N3138       N  0.11940004  0.08613124  0.80347031    -0.88610
H3139       H  0.15463188  0.03073817  0.91661260     0.35480
H3140       H  0.13019545  0.05583068  0.93266840     0.40580
H3141       H  0.13140661  0.10499365  0.79381592     0.40200
H3142       H  0.09520806  0.09305543  0.80191699     0.35090
C3143       C  0.19763740  0.88679591  0.64029537    -0.26640
C3144       C  0.18037588  0.91137932  0.65406061    -0.14720
C3145       C  0.14760322  0.90689643  0.65830154     0.35910
C3146       C  0.13363871  0.87818513  0.65024185    -0.26090
C3147       C  0.14978697  0.85355714  0.63483987    -0.15330
C3148       C  0.18285399  0.85866709  0.62994758     0.37000
N3149       N  0.20159705  0.83667151  0.61333706    -0.89580
H3150       H  0.22300445  0.88919865  0.63778293     0.18110
H3151       H  0.10845352  0.87620810  0.65400300     0.18100
N3152       N  0.12722942  0.93143377  0.67027140    -0.88610
H3153       H  0.22149482  0.82898359  0.62669438     0.35480
H3154       H  0.20982287  0.84896490  0.59484977     0.40580
H3155       H  0.13884871  0.95295365  0.67319914     0.40200
H3156       H  0.12024892  0.92331530  0.69105591     0.35090
C3157       C  0.37522271  0.11372004  0.65652373    -0.26640
C3158       C  0.39752382  0.09702177  0.63935672    -0.14720
C3159       C  0.38922759  0.06492284  0.63134461     0.35910
C3160       C  0.36027505  0.05177383  0.64023525    -0.26090
C3161       C  0.33754374  0.07011617  0.65491601    -0.15330
C3162       C  0.34503225  0.10216802  0.66174428     0.37000
N3163       N  0.32192680  0.12436209  0.67321935    -0.89580
H3164       H  0.37937465  0.13827601  0.66245751     0.18110
H3165       H  0.35571568  0.02686664  0.63573523     0.18100
N3166       N  0.40912992  0.04536269  0.61348651    -0.88610
H3167       H  0.32853445  0.12850194  0.69543736     0.35480
H3168       H  0.29906092  0.11526327  0.67213968     0.40580
H3169       H  0.39596376  0.03946204  0.59422430     0.40200
H3170       H  0.41528689  0.02411971  0.62540440     0.35090
C3171       C  0.29905338  0.91503775  0.62272633    -0.26640
C3172       C  0.32031476  0.92529190  0.64521873    -0.14720
C3173       C  0.35330884  0.92042680  0.64191425     0.35910
C3174       C  0.36374161  0.90438837  0.61686569    -0.26090
C3175       C  0.34271135  0.89400380  0.59357928    -0.15330
C3176       C  0.30943307  0.89947687  0.59740454     0.37000
N3177       N  0.28552357  0.88780059  0.57714877    -0.89580
H3178       H  0.27358707  0.91875304  0.62503536     0.18110
H3179       H  0.38915510  0.89942515  0.61574624     0.18100
N3180       N  0.37705791  0.93173220  0.66282769    -0.88610
H3181       H  0.27094954  0.90726711  0.56935743     0.35480
H3182       H  0.27139010  0.87208897  0.58877081     0.40580
H3183       H  0.36695758  0.94471794  0.67979301     0.40200
H3184       H  0.39088721  0.94790655  0.65141674     0.35090
C3185       C  0.34382374  0.10469655  0.82574117    -0.26640
C3186       C  0.31090442  0.10231337  0.82911784    -0.14720
C3187       C  0.29340614  0.13055006  0.83568254     0.35910
C3188       C  0.30969206  0.15904407  0.84226793    -0.26090
C3189       C  0.34356800  0.15998350  0.84340500    -0.15330
C3190       C  0.35965967  0.13341789  0.83034154     0.37000
N3191       N  0.39293383  0.13445487  0.82448952    -0.89580
H3192       H  0.35710502  0.08419265  0.81751432     0.18110
H3193       H  0.29539234  0.17999745  0.84738506     0.18100
N3194       N  0.25914407  0.13042694  0.83511118    -0.88610
H3195       H  0.39480214  0.14986283  0.80608782     0.35480
H3196       H  0.40191730  0.11205521  0.81810809     0.40580
H3197       H  0.25109592  0.12657153  0.81319175     0.40200
H3198       H  0.24970844  0.15287919  0.84083527     0.35090
C3199       C  0.08101709  0.39668065  0.05630246    -0.26640
C3200       C  0.05208868  0.40595080  0.06874462    -0.14720
C3201       C  0.03818277  0.38407085  0.08831518     0.35910
C3202       C  0.05578211  0.35589467  0.09767136    -0.26090
C3203       C  0.08787931  0.35023567  0.08966957    -0.15330
C3204       C  0.09817923  0.36890511  0.06533921     0.37000
N3205       N  0.12787413  0.36222506  0.05184698    -0.89580
H3206       H  0.09110145  0.41170930  0.03942523     0.18110
H3207       H  0.04446425  0.33965668  0.11250691     0.18100
N3208       N  0.00645182  0.38899367  0.09856991    -0.88610
H3209       H  0.14186062  0.38241779  0.05386944     0.35480
H3210       H  0.12313379  0.35866678  0.02916377     0.40580
H3211       H  0.99566392  0.41019926  0.08977389     0.40200
H3212       H  0.00831179  0.39149592  0.12166060     0.35090
C3213       C  0.10349068  0.57356348  0.88927004    -0.26640
C3214       C  0.07325131  0.58757933  0.89244511    -0.14720
C3215       C  0.05884248  0.60480112  0.86773983     0.35910
C3216       C  0.07618967  0.60980488  0.84213252    -0.26090
C3217       C  0.10900603  0.60095355  0.84071158    -0.15330
C3218       C  0.11991274  0.57707264  0.86287262     0.37000
N3219       N  0.14350724  0.55206441  0.85797279    -0.89580
H3220       H  0.11301724  0.55673447  0.90626867     0.18110
H3221       H  0.06298830  0.62057696  0.82329373     0.18100
N3222       N  0.02678647  0.61814208  0.86785567    -0.88610
H3223       H  0.16117291  0.55169699  0.87508645     0.35480
H3224       H  0.15408330  0.55366030  0.83766377     0.40580
H3225       H  0.01727334  0.61662296  0.88888394     0.40200
H3226       H  0.01258714  0.60492844  0.85325997     0.35090
C3227       C  0.89318686  0.60447141  0.08345775    -0.26640
C3228       C  0.90000360  0.57140284  0.08552791    -0.14720
C3229       C  0.87856430  0.55223982  0.10110878     0.35910
C3230       C  0.85197139  0.56678096  0.11454538    -0.26090
C3231       C  0.84532408  0.60037126  0.11299540    -0.15330
C3232       C  0.86682746  0.61895611  0.09652651     0.37000
N3233       N  0.86295608  0.65314740  0.09376084    -0.89580
H3234       H  0.90868399  0.61967219  0.07113462     0.18110
H3235       H  0.83733070  0.55138738  0.12743686     0.18100
N3236       N  0.88269701  0.51807447  0.10391735    -0.88610
H3237       H  0.86071835  0.65938204  0.07111526     0.35480
H3238       H  0.88377030  0.66326798  0.10236792     0.40580
H3239       H  0.90312093  0.51030089  0.09361943     0.40200
H3240       H  0.86338619  0.50793296  0.09256419     0.35090
C3241       C  0.06647764  0.42683158  0.87990103    -0.26640
C3242       C  0.07545617  0.45513325  0.89314691    -0.14720
C3243       C  0.10854759  0.46106655  0.89630693     0.35910
C3244       C  0.13119729  0.43962127  0.88446702    -0.26090
C3245       C  0.12228121  0.41207309  0.86884858    -0.15330
C3246       C  0.08898282  0.40477194  0.86925394     0.37000
N3247       N  0.07723058  0.37461015  0.85983570    -0.89580
H3248       H  0.04167658  0.42031340  0.88002849     0.18110
H3249       H  0.15607770  0.44522756  0.88710166     0.18100
N3250       N  0.12024400  0.48796130  0.91243786    -0.88610
H3251       H  0.05915423  0.37893188  0.84338875     0.35480
H3252       H  0.06689643  0.36357744  0.87797213     0.40580
H3253       H  0.10154225  0.50274841  0.91927939     0.40200
H3254       H  0.13296100  0.50176182  0.89770690     0.35090
C3255       C  0.92100952  0.44806719  0.11724947    -0.26640
C3256       C  0.90997851  0.44706475  0.08701198    -0.14720
C3257       C  0.87919945  0.43579754  0.08094747     0.35910
C3258       C  0.86239190  0.42301438  0.10395544    -0.26090
C3259       C  0.87568480  0.41845415  0.13344636    -0.15330
C3260       C  0.90352086  0.43518885  0.14042478     0.37000
N3261       N  0.91431539  0.43892483  0.17076370    -0.89580
H3262       H  0.94327460  0.45916967  0.12321092     0.18110
H3263       H  0.83860158  0.41554819  0.09792411     0.18100
N3264       N  0.86379709  0.43703022  0.05188925    -0.88610
H3265       H  0.91452897  0.46349089  0.17492157     0.35480
H3266       H  0.93783213  0.42989766  0.17330094     0.40580
H3267       H  0.87718767  0.42320595  0.03747784     0.40200
H3268       H  0.86178542  0.46090434  0.04437305     0.35090
C3269       C  0.16656380  0.88827958  0.06446594    -0.26640
C3270       C  0.15644193  0.85636407  0.06399529    -0.14720
C3271       C  0.13006239  0.84817956  0.08029757     0.35910
C3272       C  0.11696344  0.87062890  0.09902409    -0.26090
C3273       C  0.12861124  0.90215014  0.10220947    -0.15330
C3274       C  0.15212161  0.91134229  0.08239222     0.37000
N3275       N  0.16069108  0.94417674  0.07962809    -0.89580
H3276       H  0.18567874  0.89563500  0.05068798     0.18110
H3277       H  0.09574052  0.86330166  0.10957297     0.18100
N3278       N  0.11580751  0.81740259  0.07727387    -0.88610
H3279       H  0.18538939  0.94537615  0.08303524     0.35480
H3280       H  0.15499952  0.95193629  0.05774071     0.40580
H3281       H  0.10567348  0.81653279  0.05566903     0.40200
H3282       H  0.09713853  0.81474874  0.09169201     0.35090
C3283       C  0.16629530  0.68553037  0.87129036    -0.26640
C3284       C  0.17923064  0.66611040  0.89518033    -0.14720
C3285       C  0.18479164  0.63335020  0.89009878     0.35910
C3286       C  0.17324053  0.62066402  0.86347244    -0.26090
C3287       C  0.15397172  0.63881655  0.84217206    -0.15330
C3288       C  0.15548062  0.67268019  0.84444619     0.37000
N3289       N  0.15423072  0.69415495  0.81909791    -0.89580
H3290       H  0.16613244  0.71142726  0.87267195     0.18110
H3291       H  0.17985118  0.59624057  0.85928960     0.18100
N3292       N  0.20165015  0.61222637  0.91126578    -0.88610
H3293       H  0.13235839  0.70681942  0.81726374     0.35480
H3294       H  0.16000164  0.68244831  0.79966470     0.40580
H3295       H  0.18996929  0.61285654  0.93132803     0.40200
H3296       H  0.22487340  0.62010443  0.91463123     0.35090
C3297       C  0.30773802  0.61813818  0.92263038    -0.26640
C3298       C  0.30553785  0.65104090  0.91582828    -0.14720
C3299       C  0.31280829  0.66206225  0.88741415     0.35910
C3300       C  0.32576053  0.64059173  0.86778060    -0.26090
C3301       C  0.33223245  0.60774784  0.87525694    -0.15330
C3302       C  0.31946712  0.59622329  0.90238146     0.37000
N3303       N  0.31648954  0.56285826  0.90988107    -0.89580
H3304       H  0.29965938  0.60916651  0.94370392     0.18110
H3305       H  0.33047078  0.65073811  0.84651972     0.18100
N3306       N  0.30644009  0.69501811  0.87820596    -0.88610
H3307       H  0.33398421  0.55614915  0.92625166     0.35480
H3308       H  0.31854264  0.54824257  0.89157983     0.40580
H3309       H  0.28168414  0.69899005  0.87721811     0.40200
H3310       H  0.31410767  0.69956982  0.85676130     0.35090
C3311       C  0.33932950  0.67717384  0.07040094    -0.26640
C3312       C  0.31968451  0.65433021  0.05729620    -0.14720
C3313       C  0.33103541  0.62224630  0.05682480     0.35910
C3314       C  0.36050947  0.61412570  0.07111833    -0.26090
C3315       C  0.37851439  0.63627537  0.08832955    -0.15330
C3316       C  0.36816519  0.66910209  0.08570656     0.37000
N3317       N  0.38457178  0.69512278  0.09888834    -0.89580
H3318       H  0.33167004  0.70199052  0.06967813     0.18110
H3319       H  0.36795895  0.58897301  0.07153519     0.18100
N3320       N  0.31295701  0.59683005  0.04400864    -0.88610
H3321       H  0.40675072  0.69711187  0.08958574     0.35480
H3322       H  0.38613948  0.69257076  0.12201130     0.40580
H3323       H  0.29031001  0.60477547  0.03620719     0.40200
H3324       H  0.30914529  0.58014444  0.06104415     0.35090
C3325       C  0.30225183  0.85428014  0.14070977    -0.26640
C3326       C  0.33602006  0.85299278  0.13941879    -0.14720
C3327       C  0.34931194  0.83945672  0.11331028     0.35910
C3328       C  0.32937670  0.83321262  0.08891027    -0.26090
C3329       C  0.29640588  0.83750744  0.08955369    -0.15330
C3330       C  0.28244396  0.84681853  0.11610930     0.37000
N3331       N  0.24843647  0.84947329  0.11875830    -0.89580
H3332       H  0.29061804  0.86283116  0.16014703     0.18110
H3333       H  0.33991670  0.82331219  0.06929316     0.18100
N3334       N  0.38283375  0.83302572  0.10959791    -0.88610
H3335       H  0.24215619  0.83206959  0.13428490     0.35480
H3336       H  0.23625769  0.84469079  0.09868920     0.40580
H3337       H  0.39707016  0.83671647  0.12850103     0.40200
H3338       H  0.39030940  0.84845625  0.09286676     0.35090
C3339       C  0.36250872  0.66541763  0.68345143    -0.26640
C3340       C  0.38934841  0.67626872  0.66923090    -0.14720
C3341       C  0.39085562  0.67394850  0.63827928     0.35910
C3342       C  0.36730920  0.65729910  0.62273003    -0.26090
C3343       C  0.34387824  0.64037818  0.63787354    -0.15330
C3344       C  0.33929431  0.64817095  0.66799567     0.37000
N3345       N  0.31082087  0.64045484  0.68265835    -0.89580
H3346       H  0.35977318  0.66988890  0.70689165     0.18110
H3347       H  0.36948253  0.65423250  0.59905356     0.18100
N3348       N  0.41649965  0.68795350  0.62289713    -0.88610
H3349       H  0.29937940  0.66197076  0.68840208     0.35480
H3350       H  0.31725713  0.62793690  0.70248697     0.40580
H3351       H  0.41443209  0.71282483  0.62523570     0.40200
H3352       H  0.41425683  0.68365975  0.60008883     0.35090
C3353       C  0.37263007  0.81058913  0.63726040    -0.26640
C3354       C  0.40583159  0.80773991  0.63978206    -0.14720
C3355       C  0.42329294  0.82222325  0.61661642     0.35910
C3356       C  0.40739626  0.83970329  0.59286845    -0.26090
C3357       C  0.37417385  0.84448786  0.59115235    -0.15330
C3358       C  0.35677894  0.82837684  0.61369470     0.37000
N3359       N  0.32264232  0.83095856  0.61347786    -0.89580
H3360       H  0.35865603  0.79949390  0.65409870     0.18110
H3361       H  0.42170526  0.85163675  0.57693056     0.18100
N3362       N  0.45754268  0.82103236  0.61786623    -0.88610
H3363       H  0.31602807  0.84095423  0.63354965     0.35480
H3364       H  0.31380939  0.80783423  0.61265949     0.40580
H3365       H  0.46483779  0.83665576  0.63448824     0.40200
H3366       H  0.46655948  0.82989305  0.59812331     0.35090
C3367       C  0.39892011  0.62587097  0.84748435    -0.26640
C3368       C  0.37237698  0.61085630  0.83486983    -0.14720
C3369       C  0.35862605  0.62552744  0.80736921     0.35910
C3370       C  0.37187638  0.65277366  0.79451297    -0.26090
C3371       C  0.39641667  0.66842520  0.80912821    -0.15330
C3372       C  0.40889682  0.65543568  0.83685840     0.37000
N3373       N  0.43221427  0.67236950  0.85429004    -0.89580
H3374       H  0.41170869  0.61579180  0.86666030     0.18110
H3375       H  0.36225576  0.66214938  0.77321641     0.18100
N3376       N  0.32930347  0.61536135  0.79366605    -0.88610
H3377       H  0.43914560  0.65973119  0.87394133     0.35480
H3378       H  0.42129386  0.69391965  0.86064771     0.40580
H3379       H  0.31256097  0.63452187  0.79340925     0.40200
H3380       H  0.33340541  0.60945487  0.77162520     0.35090
C3381       C  0.60819680  0.69222428  0.89570586    -0.26640
C3382       C  0.60487932  0.65874178  0.90108222    -0.14720
C3383       C  0.58880677  0.64174069  0.87797704     0.35910
C3384       C  0.58060086  0.65672462  0.85045994    -0.26090
C3385       C  0.58615815  0.68912440  0.84459220    -0.15330
C3386       C  0.59915447  0.70736852  0.86789039     0.37000
N3387       N  0.60309914  0.74118704  0.86332007    -0.89580
H3388       H  0.61970739  0.70665216  0.91240265     0.18110
H3389       H  0.56854025  0.64283849  0.83350762     0.18100
N3390       N  0.58139214  0.60866200  0.88176350    -0.88610
H3391       H  0.61339327  0.75121975  0.88240141     0.35480
H3392       H  0.58041223  0.75212051  0.86001981     0.40580
H3393       H  0.59134072  0.59576086  0.86453025     0.40200
H3394       H  0.55663266  0.60691718  0.87932024     0.35090
C3395       C  0.59779370  0.86363649  0.69958988    -0.26640
C3396       C  0.59007199  0.83538151  0.68505758    -0.14720
C3397       C  0.58815403  0.83539778  0.65356863     0.35910
C3398       C  0.59604944  0.86273898  0.63767891    -0.26090
C3399       C  0.60958803  0.88898256  0.65210887    -0.15330
C3400       C  0.60620023  0.89108275  0.68342945     0.37000
N3401       N  0.60916579  0.92092322  0.69859694    -0.89580
H3402       H  0.59486149  0.86502128  0.72337898     0.18110
H3403       H  0.59600734  0.86142493  0.61371642     0.18100
N3404       N  0.57957760  0.80753027  0.63700007    -0.88610
H3405       H  0.60835593  0.91737742  0.72162931     0.35480
H3406       H  0.58928081  0.93555578  0.69231573     0.40580
H3407       H  0.57735504  0.78758766  0.65105405     0.40200
H3408       H  0.59858642  0.80154094  0.62363105     0.35090
C3409       C  0.13515724  0.19743049  0.38159208    -0.26640
C3410       C  0.16712794  0.18812136  0.38631551    -0.14720
C3411       C  0.18229742  0.16909733  0.36522207     0.35910
C3412       C  0.16396127  0.15555850  0.34225266    -0.26090
C3413       C  0.13068236  0.16197997  0.33890575    -0.15330
C3414       C  0.11699740  0.18536144  0.35783420     0.37000
N3415       N  0.08394362  0.19489824  0.35470531    -0.89580
H3416       H  0.12404682  0.21396516  0.39666906     0.18110
H3417       H  0.17586755  0.13837754  0.32854022     0.18100
N3418       N  0.21612343  0.16266545  0.36775202    -0.88610
H3419       H  0.08231028  0.21980912  0.35149177     0.35480
H3420       H  0.07308426  0.18919495  0.37453375     0.40580
H3421       H  0.22730538  0.18422695  0.36370491     0.40200
H3422       H  0.22341849  0.14698457  0.35129624     0.35090
C3423       C  0.37543340  0.12544844  0.58332649    -0.26640
C3424       C  0.39646333  0.14096323  0.60332249    -0.14720
C3425       C  0.38719718  0.17300530  0.61140732     0.35910
C3426       C  0.35935854  0.18794978  0.59864603    -0.26090
C3427       C  0.33984947  0.17245923  0.57817115    -0.15330
C3428       C  0.34779483  0.14046022  0.57093992     0.37000
N3429       N  0.32767935  0.12200823  0.55179738    -0.89580
H3430       H  0.37982152  0.10047051  0.57819327     0.18110
H3431       H  0.35325235  0.21217280  0.60458859     0.18100
N3432       N  0.40464066  0.19050913  0.63341024    -0.88610
H3433       H  0.32803929  0.13114148  0.53007632     0.35480
H3434       H  0.30440141  0.12356808  0.55917269     0.40580
H3435       H  0.38944812  0.19628436  0.65049620     0.40200
H3436       H  0.41165501  0.21193496  0.62359315     0.35090
C3437       C  0.35238566  0.32684831  0.64264466    -0.26640
C3438       C  0.34735458  0.36055319  0.64252849    -0.14720
C3439       C  0.32889399  0.37489365  0.61757594     0.35910
C3440       C  0.31871966  0.35599960  0.59404480    -0.26090
C3441       C  0.32475731  0.32304186  0.59421964    -0.15330
C3442       C  0.34168144  0.30815507  0.61889270     0.37000
N3443       N  0.34971390  0.27439026  0.62007184    -0.89580
H3444       H  0.36661595  0.31458808  0.66016836     0.18110
H3445       H  0.30494339  0.36734295  0.57551778     0.18100
N3446       N  0.32026669  0.40855355  0.61456549    -0.88610
H3447       H  0.37456437  0.27173873  0.62233711     0.35480
H3448       H  0.34363734  0.26399453  0.59985400     0.40580
H3449       H  0.32660935  0.42134529  0.63321737     0.40200
H3450       H  0.29536198  0.41074157  0.61270788     0.35090
C3451       C  0.14455349  0.32642159  0.37650974    -0.26640
C3452       C  0.14327360  0.31992077  0.40673840    -0.14720
C3453       C  0.11422173  0.32653648  0.42084865     0.35910
C3454       C  0.08969652  0.34472312  0.40570330    -0.26090
C3455       C  0.09323863  0.35709496  0.37668761    -0.15330
C3456       C  0.11928336  0.34310740  0.36104619     0.37000
N3457       N  0.11921934  0.34263863  0.32936654    -0.89580
H3458       H  0.16519055  0.31838425  0.36462946     0.18110
H3459       H  0.06805923  0.34970177  0.41719928     0.18100
N3460       N  0.10965915  0.31479350  0.45060274    -0.88610
H3461       H  0.11836713  0.31874833  0.32280751     0.35480
H3462       H  0.14088178  0.35139178  0.32261790     0.40580
H3463       H  0.11006439  0.28973245  0.45001778     0.40200
H3464       H  0.08723321  0.32200283  0.45783644     0.35090
C3465       C  0.33767929  0.16209132  0.39793247    -0.26640
C3466       C  0.30500499  0.16348911  0.40243406    -0.14720
C3467       C  0.28791859  0.13479916  0.39925802     0.35910
C3468       C  0.30248190  0.10808905  0.38571618    -0.26090
C3469       C  0.33452877  0.10844662  0.37744978    -0.15330
C3470       C  0.35279304  0.13452523  0.38779623     0.37000
N3471       N  0.38684500  0.13399842  0.38639220    -0.89580
H3472       H  0.35211281  0.18247473  0.40324300     0.18110
H3473       H  0.28872892  0.08692171  0.38272039     0.18100
N3474       N  0.25693539  0.13100213  0.41103440    -0.88610
H3475       H  0.39658318  0.13690139  0.40791624     0.35480
H3476       H  0.39324031  0.15353493  0.37325866     0.40580
H3477       H  0.24923758  0.15140243  0.42206916     0.40200
H3478       H  0.25900706  0.11257428  0.42716985     0.35090
C3479       C  0.17746633  0.39584056  0.59566855    -0.26640
C3480       C  0.15027417  0.38756386  0.61102732    -0.14720
C3481       C  0.14143522  0.35459698  0.60978589     0.35910
C3482       C  0.16297278  0.33110075  0.60045645    -0.26090
C3483       C  0.19148561  0.33924439  0.58832760    -0.15330
C3484       C  0.19857805  0.37204242  0.58512449     0.37000
N3485       N  0.22746117  0.38100425  0.57150707    -0.89580
H3486       H  0.18348544  0.42085064  0.59396301     0.18110
H3487       H  0.15554767  0.30645232  0.59946525     0.18100
N3488       N  0.10959953  0.34478658  0.61462787    -0.88610
H3489       H  0.22990765  0.40585002  0.57213079     0.35480
H3490       H  0.22559096  0.37522042  0.54903502     0.40580
H3491       H  0.11078481  0.32616369  0.63058516     0.40200
H3492       H  0.10026155  0.33536943  0.59484838     0.35090
C3493       C  0.12661074  0.39148541  0.12179522    -0.26640
C3494       C  0.13469877  0.35806572  0.12624538    -0.14720
C3495       C  0.16137832  0.35110704  0.14641429     0.35910
C3496       C  0.18033900  0.37627521  0.15676479    -0.26090
C3497       C  0.17337320  0.40878351  0.14892504    -0.15330
C3498       C  0.14576523  0.41624335  0.13132627     0.37000
N3499       N  0.13459582  0.44873459  0.12462365    -0.89580
H3500       H  0.10400490  0.39985753  0.11208373     0.18110
H3501       H  0.20025757  0.37041268  0.17228254     0.18100
N3502       N  0.17082146  0.31912210  0.15645789    -0.88610
H3503       H  0.13357318  0.45176944  0.10146322     0.35480
H3504       H  0.15033828  0.46559149  0.13275453     0.40580
H3505       H  0.15720609  0.30178360  0.14628138     0.40200
H3506       H  0.16711652  0.31753044  0.17927083     0.35090
C3507       C  0.32526829  0.59478104  0.14901713    -0.26640
C3508       C  0.32775935  0.56140459  0.14954438    -0.14720
C3509       C  0.35682023  0.54635766  0.14171898     0.35910
C3510       C  0.38134197  0.56506338  0.13038519    -0.26090
C3511       C  0.37904293  0.59901317  0.12992349    -0.15330
C3512       C  0.35052252  0.61348398  0.14085656     0.37000
N3513       N  0.34685337  0.64760009  0.14350017    -0.89580
H3514       H  0.30408629  0.60669225  0.15719380     0.18110
H3515       H  0.40212607  0.55282756  0.12210192     0.18100
N3516       N  0.36175133  0.51232709  0.14612599    -0.88610
H3517       H  0.34267745  0.65268725  0.16569091     0.35480
H3518       H  0.32645051  0.65534064  0.13086743     0.40580
H3519       H  0.36163839  0.50731843  0.16898762     0.40200
H3520       H  0.38424599  0.50489819  0.13921848     0.35090
C3521       C  0.29793893  0.59901497  0.35389989    -0.26640
C3522       C  0.30300482  0.59226372  0.32433578    -0.14720
C3523       C  0.32219284  0.61305176  0.30809456     0.35910
C3524       C  0.33652928  0.63889110  0.32181725    -0.26090
C3525       C  0.33519685  0.64388893  0.35248462    -0.15330
C3526       C  0.31178557  0.62553561  0.36753772     0.37000
N3527       N  0.29894678  0.63545334  0.39515288    -0.89580
H3528       H  0.28151872  0.58490889  0.36606987     0.18110
H3529       H  0.34833413  0.65511072  0.30745912     0.18100
N3530       N  0.32752602  0.60823934  0.27725092    -0.88610
H3531       H  0.29898102  0.61561984  0.40976793     0.35480
H3532       H  0.27495798  0.64226012  0.39090680     0.40580
H3533       H  0.35211366  0.60533321  0.27481672     0.40200
H3534       H  0.31975489  0.62910698  0.26545605     0.35090
C3535       C  0.12852817  0.41586532  0.30971612    -0.26640
C3536       C  0.14600751  0.43769947  0.32711728    -0.14720
C3537       C  0.13113690  0.44907133  0.35279111     0.35910
C3538       C  0.10287385  0.43463995  0.36180304    -0.26090
C3539       C  0.08860656  0.40889312  0.34649225    -0.15330
C3540       C  0.09917799  0.40467170  0.31725738     0.37000
N3541       N  0.08070702  0.38923471  0.29442987    -0.89580
H3542       H  0.13674620  0.40763478  0.28858401     0.18110
H3543       H  0.09108194  0.44569886  0.37973947     0.18100
N3544       N  0.14225942  0.47585494  0.36944961    -0.88610
H3545       H  0.07505666  0.40618089  0.27741832     0.35480
H3546       H  0.09428366  0.37083491  0.28514396     0.40580
H3547       H  0.16162293  0.48643312  0.36006569     0.40200
H3548       H  0.14980544  0.46729514  0.39067720     0.35090
C3549       C  0.13453462  0.56181838  0.34787564    -0.26640
C3550       C  0.16620106  0.56950092  0.34430481    -0.14720
C3551       C  0.18235552  0.58661530  0.36665335     0.35910
C3552       C  0.16574599  0.59795489  0.39105967    -0.26090
C3553       C  0.13298930  0.59216156  0.39430700    -0.15330
C3554       C  0.11796748  0.57238908  0.37247853     0.37000
N3555       N  0.08511838  0.56450689  0.37421462    -0.89580
H3556       H  0.12247672  0.54732101  0.33142139     0.18110
H3557       H  0.17844278  0.61324007  0.40616534     0.18100
N3558       N  0.21538405  0.59362250  0.36383413    -0.88610
H3559       H  0.08374200  0.53952968  0.37425798     0.35480
H3560       H  0.07288482  0.57330318  0.35485346     0.40580
H3561       H  0.22841550  0.57193820  0.36675410     0.40200
H3562       H  0.22331803  0.60830065  0.38101327     0.35090
C3563       C  0.33172630  0.42929792  0.08808879    -0.26640
C3564       C  0.33237172  0.39544466  0.08767085    -0.14720
C3565       C  0.31542055  0.37920478  0.11020419     0.35910
C3566       C  0.30416766  0.39594612  0.13427685    -0.26090
C3567       C  0.30651464  0.42893299  0.13554317    -0.15330
C3568       C  0.31792919  0.44614571  0.11113829     0.37000
N3569       N  0.31633459  0.48064009  0.11016490    -0.89580
H3570       H  0.34327828  0.44319206  0.07153455     0.18110
H3571       H  0.29270739  0.38303877  0.15182514     0.18100
N3572       N  0.30990427  0.34552707  0.10927987    -0.88610
H3573       H  0.32826313  0.48954574  0.09197579     0.35480
H3574       H  0.29243255  0.48794590  0.10638938     0.40580
H3575       H  0.28524715  0.34256665  0.10815805     0.40200
H3576       H  0.31855164  0.33509241  0.12947827     0.35090
C3577       C  0.88429485  0.10432499  0.81876235    -0.26640
C3578       C  0.88431350  0.10629652  0.85005879    -0.14720
C3579       C  0.89911342  0.13322456  0.86338320     0.35910
C3580       C  0.90986344  0.15800656  0.84565382    -0.26090
C3581       C  0.90764842  0.15641763  0.81483577    -0.15330
C3582       C  0.89523122  0.12909210  0.80117034     0.37000
N3583       N  0.89215010  0.12607845  0.76945270    -0.89580
H3584       H  0.87459216  0.08420016  0.80714277     0.18110
H3585       H  0.92094819  0.17826708  0.85615546     0.18100
N3586       N  0.90295039  0.13591094  0.89501501    -0.88610
H3587       H  0.90935139  0.10899208  0.76339368     0.35480
H3588       H  0.89621814  0.14761514  0.75829622     0.40580
H3589       H  0.89136541  0.15721539  0.90116283     0.40200
H3590       H  0.92726338  0.13768398  0.90055380     0.35090
C3591       C  0.82402489  0.13110975  0.86994097    -0.26640
C3592       C  0.84205314  0.10666953  0.88646793    -0.14720
C3593       C  0.84445345  0.11074303  0.91833905     0.35910
C3594       C  0.82710448  0.13510143  0.93130662    -0.26090
C3595       C  0.80904953  0.15770847  0.91444002    -0.15330
C3596       C  0.80683944  0.15578480  0.88353049     0.37000
N3597       N  0.78696058  0.17845505  0.86612780    -0.89580
H3598       H  0.82556786  0.13297899  0.84604692     0.18110
H3599       H  0.82943684  0.13753322  0.95530664     0.18100
N3600       N  0.86726113  0.09389849  0.93805952    -0.88610
H3601       H  0.78680757  0.17269041  0.84360147     0.35480
H3602       H  0.79712317  0.20090001  0.86790018     0.40580
H3603       H  0.85512159  0.08298053  0.95516740     0.40200
H3604       H  0.88270863  0.11033851  0.94765815     0.35090
C3605       C  0.60360634  0.89871936  0.89104129    -0.26640
C3606       C  0.63139120  0.91513329  0.88389120    -0.14720
C3607       C  0.63371201  0.94688673  0.89420439     0.35910
C3608       C  0.60623745  0.96296550  0.90456359    -0.26090
C3609       C  0.57727309  0.94724494  0.90694900    -0.15330
C3610       C  0.57651406  0.91430261  0.90107275     0.37000
N3611       N  0.54890223  0.89548039  0.90568963    -0.89580
H3612       H  0.60130915  0.87370381  0.88615177     0.18110
H3613       H  0.60805746  0.98706337  0.91287937     0.18100
N3614       N  0.66390641  0.96206736  0.89586000    -0.88610
H3615       H  0.54191112  0.88593349  0.88519370     0.35480
H3616       H  0.52941276  0.90945372  0.91215769     0.40580
H3617       H  0.67744219  0.95080427  0.91331011     0.40200
H3618       H  0.66089591  0.98605280  0.90182584     0.35090
C3619       C  0.64847458  0.84463249  0.83597454    -0.26640
C3620       C  0.63802065  0.87602290  0.84258628    -0.14720
C3621       C  0.60964229  0.88833238  0.82697399     0.35910
C3622       C  0.58972755  0.86776782  0.81178043    -0.26090
C3623       C  0.59788260  0.83540323  0.80950867    -0.15330
C3624       C  0.62864911  0.82403104  0.81981082     0.37000
N3625       N  0.63925170  0.79147618  0.81501917    -0.89580
H3626       H  0.67149420  0.83546051  0.84458139     0.18110
H3627       H  0.56730028  0.87738521  0.80190715     0.18100
N3628       N  0.59949748  0.92138285  0.82775657    -0.88610
H3629       H  0.66130354  0.78644228  0.82610201     0.35480
H3630       H  0.64323147  0.78945679  0.79233111     0.40580
H3631       H  0.59694457  0.93007942  0.80579163     0.40200
H3632       H  0.57692198  0.92289573  0.83672404     0.35090
C3633       C  0.81590863  0.67391863  0.83067075    -0.26640
C3634       C  0.82909232  0.67135337  0.85976773    -0.14720
C3635       C  0.81789440  0.64583834  0.87816626     0.35910
C3636       C  0.80075472  0.62040919  0.86558369    -0.26090
C3637       C  0.79272807  0.62042569  0.83516571    -0.15330
C3638       C  0.79738642  0.64928817  0.81846639     0.37000
N3639       N  0.78389697  0.65315269  0.78866011    -0.89580
H3640       H  0.82073967  0.69461377  0.81698505     0.18110
H3641       H  0.79599988  0.59959996  0.87927448     0.18100
N3642       N  0.82674805  0.64382189  0.90925640    -0.88610
H3643       H  0.78953797  0.67530509  0.77934566     0.35480
H3644       H  0.75908192  0.65332691  0.78993032     0.40580
H3645       H  0.83970783  0.62225337  0.91354502     0.40200
H3646       H  0.80586599  0.64319888  0.92108810     0.35090
C3647       C  0.90671777  0.67980981  0.90530839    -0.26640
C3648       C  0.88434829  0.66952524  0.88358080    -0.14720
C3649       C  0.89166901  0.63919937  0.87002971     0.35910
C3650       C  0.91612161  0.61886341  0.88203872    -0.26090
C3651       C  0.93476920  0.62758943  0.90648765    -0.15330
C3652       C  0.93175475  0.65941579  0.91683604     0.37000
N3653       N  0.95336986  0.67162138  0.93922638    -0.89580
H3654       H  0.90472599  0.70388176  0.91372325     0.18110
H3655       H  0.91895641  0.59494918  0.87323510     0.18100
N3656       N  0.87426458  0.62776196  0.84448332    -0.88610
H3657       H  0.96337876  0.69206205  0.93019625     0.35480
H3658       H  0.97263655  0.65551582  0.94370466     0.40580
H3659       H  0.89046880  0.62226989  0.82815821     0.40200
H3660       H  0.86409874  0.60614682  0.85047046     0.35090
C3661       C  0.87193233  0.92460137  0.61936840    -0.26640
C3662       C  0.88826708  0.90693232  0.64309127    -0.14720
C3663       C  0.92233380  0.90685603  0.64267341     0.35910
C3664       C  0.93726879  0.91812037  0.61736401    -0.26090
C3665       C  0.91987806  0.93114086  0.59246818    -0.15330
C3666       C  0.88679640  0.93562524  0.59423101     0.37000
N3667       N  0.86766402  0.95278593  0.57162835    -0.89580
H3668       H  0.84724278  0.93165318  0.62039407     0.18110
H3669       H  0.96304161  0.91755269  0.61772435     0.18100
N3670       N  0.94252533  0.89782247  0.66810001    -0.88610
H3671       H  0.86871163  0.94020449  0.55182444     0.35480
H3672       H  0.87690579  0.97551663  0.56850820     0.40580
H3673       H  0.95560815  0.91767605  0.67437113     0.40200
H3674       H  0.95865466  0.87973666  0.66192043     0.35090
C3675       C  0.82294329  0.87815078  0.62626338    -0.26640
C3676       C  0.84743049  0.86401228  0.64542480    -0.14720
C3677       C  0.84995304  0.82999354  0.64374030     0.35910
C3678       C  0.83951449  0.81489382  0.61735860    -0.26090
C3679       C  0.82251447  0.83207550  0.59417299    -0.15330
C3680       C  0.81184673  0.86367475  0.60011619     0.37000
N3681       N  0.78885898  0.88151459  0.58113933    -0.89580
H3682       H  0.81209308  0.90108851  0.63146700     0.18110
H3683       H  0.84276815  0.78908135  0.61590062     0.18100
N3684       N  0.85623368  0.81030141  0.66990409    -0.88610
H3685       H  0.76847600  0.88546092  0.59331798     0.35480
H3686       H  0.78170408  0.86874747  0.56248834     0.40580
H3687       H  0.87314517  0.79236991  0.66505335     0.40200
H3688       H  0.83524203  0.79878417  0.67464296     0.35090
C3689       C  0.69614303  0.95944866  0.81209107    -0.26640
C3690       C  0.72382532  0.94191231  0.80535184    -0.14720
C3691       C  0.72849500  0.91061219  0.81726159     0.35910
C3692       C  0.70584504  0.89767282  0.83514977    -0.26090
C3693       C  0.67880336  0.91546290  0.84444694    -0.15330
C3694       C  0.67333192  0.94661348  0.83081268     0.37000
N3695       N  0.64491560  0.96555943  0.83471062    -0.89580
H3696       H  0.69218769  0.98350681  0.80277933     0.18110
H3697       H  0.71049009  0.87320170  0.84295405     0.18100
N3698       N  0.75666196  0.89144107  0.81257575    -0.88610
H3699       H  0.65170715  0.98751241  0.84325587     0.35480
H3700       H  0.63423967  0.97068044  0.81364585     0.40580
H3701       H  0.77672815  0.90449717  0.81844011     0.40200
H3702       H  0.75674016  0.88590325  0.79012480     0.35090
C3703       C  0.82348361  0.95546949  0.70732396    -0.26640
C3704       C  0.80586372  0.93729258  0.72693522    -0.14720
C3705       C  0.80610407  0.90367430  0.72373429     0.35910
C3706       C  0.82393175  0.88942651  0.70151750    -0.26090
C3707       C  0.84372066  0.90721932  0.68317288    -0.15330
C3708       C  0.84206444  0.94134367  0.68551932     0.37000
N3709       N  0.86163896  0.96193271  0.66883478    -0.89580
H3710       H  0.82477977  0.98108092  0.71028378     0.18110
H3711       H  0.82488722  0.86348984  0.70045382     0.18100
N3712       N  0.79123838  0.88357152  0.74494370    -0.88610
H3713       H  0.87586067  0.97488636  0.68363200     0.35480
H3714       H  0.84673064  0.97844611  0.65666327     0.40580
H3715       H  0.80443726  0.88517701  0.76507251     0.40200
H3716       H  0.79278126  0.85948462  0.73896785     0.35090
C3717       C  0.84218005  0.00750479  0.82208152    -0.26640
C3718       C  0.81279094  0.01677044  0.80861940    -0.14720
C3719       C  0.80129635  0.04846456  0.81178849     0.35910
C3720       C  0.81613826  0.06808305  0.83276296    -0.26090
C3721       C  0.84576996  0.05931056  0.84753108    -0.15330
C3722       C  0.85975262  0.02886717  0.83933818     0.37000
N3723       N  0.89202130  0.01926390  0.84778751    -0.89580
H3724       H  0.85216985  0.98366567  0.81840459     0.18110
H3725       H  0.80378967  0.09038362  0.83607651     0.18100
N3726       N  0.77547114  0.06203558  0.79319740    -0.88610
H3727       H  0.90438011  0.01513263  0.82845964     0.35480
H3728       H  0.89180390  0.99762614  0.85994207     0.40580
H3729       H  0.76785531  0.04580172  0.77726650     0.40200
H3730       H  0.78430532  0.08128468  0.78117781     0.35090
C3731       C  0.81654622  0.91838137  0.14961023    -0.26640
C3732       C  0.82247527  0.95075527  0.15448489    -0.14720
C3733       C  0.83630350  0.96865682  0.13184918     0.35910
C3734       C  0.84799519  0.95282381  0.10679337    -0.26090
C3735       C  0.84430723  0.91940898  0.10294793    -0.15330
C3736       C  0.82623755  0.90290848  0.12409697     0.37000
N3737       N  0.82065579  0.86935639  0.12144095    -0.89580
H3738       H  0.80376639  0.90484214  0.16582207     0.18110
H3739       H  0.86125041  0.96661933  0.09127806     0.18100
N3740       N  0.83781885  0.00283460  0.13404177    -0.88610
H3741       H  0.79604531  0.86626352  0.12139332     0.35480
H3742       H  0.83115336  0.85723668  0.14013552     0.40580
H3743       H  0.81443086  0.01232128  0.13375554     0.40200
H3744       H  0.84820182  0.01257858  0.11536868     0.35090
C3745       C  0.89595325  0.89216183  0.13428149    -0.26640
C3746       C  0.89166036  0.88120842  0.10446066    -0.14720
C3747       C  0.91558330  0.85837132  0.09570863     0.35910
C3748       C  0.93416289  0.84119416  0.11789082    -0.26090
C3749       C  0.93217770  0.84849898  0.14815682    -0.15330
C3750       C  0.91461667  0.87580123  0.15594156     0.37000
N3751       N  0.91397772  0.88696650  0.18588790    -0.89580
H3752       H  0.88487318  0.91396637  0.14192201     0.18110
H3753       H  0.95011008  0.82180034  0.11146580     0.18100
N3754       N  0.92308656  0.85325103  0.06514757    -0.88610
H3755       H  0.93706024  0.89281118  0.19295078     0.35480
H3756       H  0.90591529  0.86874074  0.19965972     0.40580
H3757       H  0.90652647  0.86463514  0.05026724     0.40200
H3758       H  0.92284828  0.82875975  0.06083544     0.35090
C3759       C  0.12909321  0.93137427  0.81505125    -0.26640
C3760       C  0.15246045  0.94741753  0.83202627    -0.14720
C3761       C  0.14589169  0.95405362  0.86171787     0.35910
C3762       C  0.11776911  0.94236983  0.87391781    -0.26090
C3763       C  0.09588810  0.92277167  0.85777536    -0.15330
C3764       C  0.10178693  0.91890451  0.82711876     0.37000
N3765       N  0.08170732  0.90072949  0.80782572    -0.89580
H3766       H  0.13227412  0.92712234  0.79169643     0.18110
H3767       H  0.11433585  0.94615226  0.89730755     0.18100
N3768       N  0.16809896  0.97146535  0.87980383    -0.88610
H3769       H  0.09529565  0.88165687  0.79959361     0.35480
H3770       H  0.07352548  0.91552260  0.78986952     0.40580
H3771       H  0.18918803  0.95743047  0.88230192     0.40200
H3772       H  0.15970130  0.97428620  0.90117693     0.35090
C3773       C  0.13723170  0.87661751  0.94112348    -0.26640
C3774       C  0.15984063  0.85981191  0.92538281    -0.14720
C3775       C  0.15465646  0.85564126  0.89458561     0.35910
C3776       C  0.12542455  0.86534975  0.88085337    -0.26090
C3777       C  0.10135230  0.88165001  0.89633069    -0.15330
C3778       C  0.10866224  0.88836557  0.92718726     0.37000
N3779       N  0.08852755  0.90808652  0.94475374    -0.89580
H3780       H  0.14112910  0.87959273  0.96489485     0.18110
H3781       H  0.12178484  0.86150762  0.85721501     0.18100
N3782       N  0.17882443  0.84004169  0.87768827    -0.88610
H3783       H  0.10140695  0.92765853  0.95212713     0.35480
H3784       H  0.08227567  0.89469760  0.96339686     0.40580
H3785       H  0.19863897  0.85457574  0.87819665     0.40200
H3786       H  0.17123204  0.83839735  0.85534185     0.35090
C3787       C  0.90783302  0.73174698  0.80873868    -0.26640
C3788       C  0.91774550  0.76020722  0.82213607    -0.14720
C3789       C  0.90549381  0.76753182  0.84998049     0.35910
C3790       C  0.88606118  0.74595756  0.86418496    -0.26090
C3791       C  0.87492821  0.71719770  0.85113920    -0.15330
C3792       C  0.88717618  0.71032781  0.82272224     0.37000
N3793       N  0.87958852  0.68160107  0.80766466    -0.89580
H3794       H  0.91655637  0.72575030  0.78712905     0.18110
H3795       H  0.88025621  0.75233089  0.88652597     0.18100
N3796       N  0.91091547  0.79746242  0.86419651    -0.88610
H3797       H  0.90106642  0.66955352  0.80324923     0.35480
H3798       H  0.86832209  0.68805354  0.78713365     0.40580
H3799       H  0.90501710  0.81629127  0.84906127     0.40200
H3800       H  0.93476410  0.79851135  0.87139445     0.35090
C3801       C  0.03081896  0.82557986  0.83968378    -0.26640
C3802       C  0.00613632  0.84128200  0.82234675    -0.14720
C3803       C  0.00405444  0.87530746  0.82336090     0.35910
C3804       C  0.02724939  0.89219498  0.83948770    -0.26090
C3805       C  0.05294484  0.87691823  0.85640616    -0.15330
C3806       C  0.05321572  0.84255069  0.85729073     0.37000
N3807       N  0.07437072  0.82420939  0.87730197    -0.89580
H3808       H  0.03217555  0.79958185  0.84044730     0.18110
H3809       H  0.02475144  0.91815045  0.83940153     0.18100
N3810       N  0.97737379  0.89364783  0.81025536    -0.88610
H3811       H  0.08769813  0.80810447  0.86484832     0.35480
H3812       H  0.06067676  0.81091355  0.89164653     0.40580
H3813       H  0.95626733  0.88387981  0.81725476     0.40200
H3814       H  0.97788099  0.89318345  0.78713054     0.35090
C3815       C  0.91589242  0.86437872  0.74109553    -0.26640
C3816       C  0.92931115  0.83431706  0.73560494    -0.14720
C3817       C  0.92776321  0.82318099  0.70610059     0.35910
C3818       C  0.91011445  0.84144035  0.68375898    -0.26090
C3819       C  0.89161154  0.86935840  0.69026555    -0.15330
C3820       C  0.89902910  0.88254307  0.71905562     0.37000
N3821       N  0.89528617  0.91578834  0.72560988    -0.89580
H3822       H  0.91951822  0.87461491  0.76293482     0.18110
H3823       H  0.91075830  0.83353250  0.66101426     0.18100
N3824       N  0.94381973  0.79391623  0.69791963    -0.88610
H3825       H  0.87296360  0.92081756  0.73398745     0.35480
H3826       H  0.90124997  0.93009107  0.70755296     0.40580
H3827       H  0.95615484  0.78285981  0.71620226     0.40200
H3828       H  0.96095294  0.79987852  0.68272799     0.35090
C3829       C  0.88859069  0.02018408  0.92945752    -0.26640
C3830       C  0.92131027  0.02454610  0.93339290    -0.14720
C3831       C  0.93636352  0.04732456  0.91584858     0.35910
C3832       C  0.91835451  0.06493045  0.89400171    -0.26090
C3833       C  0.88493086  0.06210843  0.89079923    -0.15330
C3834       C  0.87029311  0.03849983  0.90848115     0.37000
N3835       N  0.83652711  0.03420400  0.90603020    -0.89580
H3836       H  0.87719012  0.00190300  0.94230869     0.18110
H3837       H  0.93094693  0.08066631  0.87965925     0.18100
N3838       N  0.97005357  0.05196149  0.91999608    -0.88610
H3839       H  0.82707038  0.03819366  0.92682615     0.35480
H3840       H  0.83272519  0.01034645  0.90055804     0.40580
H3841       H  0.97402468  0.06077260  0.94138982     0.40200
H3842       H  0.97758411  0.06947887  0.90515930     0.35090
C3843       C  0.89207212  0.94801235  0.01285396    -0.26640
C3844       C  0.92491085  0.95043811  0.01864571    -0.14720
C3845       C  0.93747483  0.94198967  0.04736184     0.35910
C3846       C  0.91767341  0.92808718  0.06794905    -0.26090
C3847       C  0.88507325  0.92175354  0.06112764    -0.15330
C3848       C  0.87182669  0.93675380  0.03437730     0.37000
N3849       N  0.83832897  0.94367477  0.02972444    -0.89580
H3850       H  0.88168870  0.95657419  0.99156176     0.18110
H3851       H  0.92862864  0.92230843  0.08963176     0.18100
N3852       N  0.96961652  0.94810737  0.05706738    -0.88610
H3853       H  0.83282474  0.95382274  0.00860856     0.35480
H3854       H  0.83177989  0.96096727  0.04501822     0.40580
H3855       H  0.98205258  0.95837600  0.04000980     0.40200
H3856       H  0.98091273  0.92604187  0.06289417     0.35090
C3857       C  0.02482138  0.96113099  0.92031900    -0.26640
C3858       C  0.00596649  0.94105884  0.93737615    -0.14720
C3859       C  0.00897503  0.90764333  0.93328157     0.35910
C3860       C  0.03117086  0.89564515  0.91360690    -0.26090
C3861       C  0.04997921  0.91594711  0.89621880    -0.15330
C3862       C  0.04444566  0.94940656  0.89841938     0.37000
N3863       N  0.05669638  0.97189845  0.87775952    -0.89580
H3864       H  0.02219047  0.98680774  0.92204782     0.18110
H3865       H  0.03402271  0.86983671  0.91202937     0.18100
N3866       N  0.98921449  0.88519706  0.94752127    -0.88610
H3867       H  0.06992998  0.98843086  0.88981544     0.35480
H3868       H  0.03741434  0.98438877  0.86689758     0.40580
H3869       H  0.96528802  0.89248308  0.94376016     0.40200
H3870       H  0.99508229  0.88433277  0.97028871     0.35090
C3871       C  0.69360330  0.83116422  0.92396738    -0.26640
C3872       C  0.72277883  0.84463555  0.93206580    -0.14720
C3873       C  0.72916546  0.87510466  0.91995874     0.35910
C3874       C  0.70663918  0.89133167  0.90091367    -0.26090
C3875       C  0.67816744  0.87731375  0.89029768    -0.15330
C3876       C  0.67118786  0.84706506  0.90380640     0.37000
N3877       N  0.64167225  0.83190502  0.89754277    -0.89580
H3878       H  0.68824425  0.80782866  0.93312715     0.18110
H3879       H  0.71287317  0.91478708  0.89283529     0.18100
N3880       N  0.75937700  0.88949797  0.92485929    -0.88610
H3881       H  0.63020672  0.82906537  0.91756458     0.35480
H3882       H  0.64673960  0.80898029  0.88955731     0.40580
H3883       H  0.77737303  0.87341597  0.91853327     0.40200
H3884       H  0.76269136  0.89404809  0.94739495     0.35090
C3885       C  0.82899211  0.82747005  0.03613463    -0.26640
C3886       C  0.80479645  0.84408081  0.01842544    -0.14720
C3887       C  0.79626759  0.87538608  0.02880447     0.35910
C3888       C  0.81460161  0.88950890  0.05132847    -0.26090
C3889       C  0.84365725  0.87626792  0.06342501    -0.15330
C3890       C  0.84689230  0.84240178  0.05937276     0.37000
N3891       N  0.86358935  0.82200843  0.08115403    -0.89580
H3892       H  0.83322771  0.80203361  0.03307182     0.18110
H3893       H  0.80549382  0.91217555  0.05928747     0.18100
N3894       N  0.76933901  0.89464666  0.01802864    -0.88610
H3895       H  0.87759864  0.80524545  0.07011848     0.35480
H3896       H  0.84664254  0.80897297  0.09217453     0.40580
H3897       H  0.74824936  0.88429923  0.02424697     0.40200
H3898       H  0.77071473  0.89936290  0.99533283     0.35090
C3899       C  0.80614592  0.76371139  0.90188358    -0.26640
C3900       C  0.81009981  0.76163847  0.93306680    -0.14720
C3901       C  0.82778236  0.73430751  0.94524747     0.35910
C3902       C  0.84221888  0.71173003  0.92620587    -0.26090
C3903       C  0.83840150  0.71443787  0.89476442    -0.15330
C3904       C  0.81789711  0.74001742  0.88326900     0.37000
N3905       N  0.81032161  0.74328059  0.85195575    -0.89580
H3906       H  0.79339725  0.78414386  0.89127049     0.18110
H3907       H  0.85591278  0.69172317  0.93639609     0.18100
N3908       N  0.83049591  0.72781215  0.97664050    -0.88610
H3909       H  0.81811635  0.76545298  0.84445196     0.35480
H3910       H  0.78551373  0.74326693  0.84869703     0.40580
H3911       H  0.80765649  0.72849087  0.98506853     0.40200
H3912       H  0.84413256  0.74526042  0.98682352     0.35090
C3913       C  0.33526340  0.17083631  0.13534981    -0.26640
C3914       C  0.33181437  0.13764779  0.14005866    -0.14720
C3915       C  0.35339420  0.12239254  0.16244845     0.35910
C3916       C  0.37868073  0.13899000  0.17497613    -0.26090
C3917       C  0.38476592  0.16972625  0.16513877    -0.15330
C3918       C  0.36352572  0.18527226  0.14420530     0.37000
N3919       N  0.37185274  0.21379037  0.12866517    -0.89580
H3920       H  0.31857699  0.18532853  0.12172487     0.18110
H3921       H  0.39418421  0.12740935  0.19218228     0.18100
N3922       N  0.35154153  0.08997188  0.17290401    -0.88610
H3923       H  0.37199447  0.20870682  0.10598507     0.35480
H3924       H  0.39511608  0.22017021  0.13446104     0.40580
H3925       H  0.35395299  0.07404716  0.15553342     0.40200
H3926       H  0.33073265  0.08733292  0.18443038     0.35090
C3927       C  0.58996907  0.32996115  0.34370925    -0.26640
C3928       C  0.58526908  0.33106156  0.31292753    -0.14720
C3929       C  0.60548115  0.34897219  0.29541663     0.35910
C3930       C  0.63056172  0.36502398  0.30875221    -0.26090
C3931       C  0.63625675  0.36409649  0.33986735    -0.15330
C3932       C  0.61492133  0.34635663  0.35741358     0.37000
N3933       N  0.61840320  0.34509816  0.38927254    -0.89580
H3934       H  0.57447544  0.31597529  0.35717837     0.18110
H3935       H  0.64435206  0.37962402  0.29434188     0.18100
N3936       N  0.60073813  0.35158476  0.26382324    -0.88610
H3937       H  0.62084281  0.32106977  0.39628338     0.35480
H3938       H  0.59735294  0.35454014  0.39778643     0.40580
H3939       H  0.57750488  0.36048159  0.25882535     0.40200
H3940       H  0.60307859  0.32851280  0.25561751     0.35090
C3941       C  0.59436432  0.19626978  0.36296837    -0.26640
C3942       C  0.57450820  0.18016677  0.34289934    -0.14720
C3943       C  0.56545640  0.14886129  0.35147366     0.35910
C3944       C  0.57579749  0.13496176  0.37882817    -0.26090
C3945       C  0.59743697  0.14959536  0.39872995    -0.15330
C3946       C  0.60626153  0.18155476  0.39019244     0.37000
N3947       N  0.62843566  0.19912568  0.40793722    -0.89580
H3948       H  0.60073652  0.22060822  0.35759839     0.18110
H3949       H  0.56915802  0.11051557  0.38329103     0.18100
N3950       N  0.54630121  0.12957938  0.33237062    -0.88610
H3951       H  0.61725731  0.22079908  0.41362194     0.35480
H3952       H  0.64783921  0.20436608  0.39506449     0.40580
H3953       H  0.55502422  0.13032816  0.31094456     0.40200
H3954       H  0.52284750  0.13850277  0.33228239     0.35090
C3955       C  0.61702959  0.37509835  0.17487334    -0.26640
C3956       C  0.59808511  0.39380855  0.15306621    -0.14720
C3957       C  0.56668824  0.38155659  0.14682606     0.35910
C3958       C  0.55673761  0.35450758  0.16254442    -0.26090
C3959       C  0.57658540  0.33626145  0.18290921    -0.15330
C3960       C  0.60739283  0.34657007  0.18865680     0.37000
N3961       N  0.62976456  0.32696068  0.20670133    -0.89580
H3962       H  0.64130482  0.38040078  0.17965779     0.18110
H3963       H  0.53318427  0.34621670  0.15676510     0.18100
N3964       N  0.54534376  0.39111114  0.12219560    -0.88610
H3965       H  0.65182427  0.33776099  0.20894401     0.35480
H3966       H  0.63368607  0.30547964  0.19560305     0.40580
H3967       H  0.55557432  0.39836629  0.10263673     0.40200
H3968       H  0.52584901  0.40503082  0.12887149     0.35090
C3969       C  0.37114358  0.32253025  0.09427412    -0.26640
C3970       C  0.37630544  0.35587075  0.09086006    -0.14720
C3971       C  0.39346737  0.37031952  0.11539027     0.35910
C3972       C  0.40321607  0.35183482  0.14081080    -0.26090
C3973       C  0.39468900  0.31990950  0.14495883    -0.15330
C3974       C  0.37681994  0.30596469  0.12173846     0.37000
N3975       N  0.36153557  0.27625685  0.12600596    -0.89580
H3976       H  0.35764842  0.30996024  0.07749159     0.18110
H3977       H  0.41742579  0.36301663  0.15818336     0.18100
N3978       N  0.40015723  0.40389232  0.11687730    -0.88610
H3979       H  0.33721573  0.27993663  0.12052279     0.35480
H3980       H  0.36240814  0.26981298  0.14855505     0.40580
H3981       H  0.39132632  0.41733009  0.09860827     0.40200
H3982       H  0.42493406  0.40594170  0.11758220     0.35090
C3983       C  0.35917859  0.15662206  0.30009398    -0.26640
C3984       C  0.39142387  0.15518529  0.29490013    -0.14720
C3985       C  0.40972049  0.12761575  0.30541616     0.35910
C3986       C  0.39658841  0.10427109  0.32370148    -0.26090
C3987       C  0.36506176  0.10733202  0.33233407    -0.15330
C3988       C  0.34569936  0.13313241  0.31803398     0.37000
N3989       N  0.31235731  0.13705011  0.32298396    -0.89580
H3990       H  0.34462182  0.17709793  0.29180069     0.18110
H3991       H  0.41163417  0.08397270  0.33094465     0.18100
N3992       N  0.44228173  0.12331761  0.29792486    -0.88610
H3993       H  0.29988784  0.13683829  0.30236247     0.35480
H3994       H  0.30820338  0.15949662  0.33232829     0.40580
H3995       H  0.44461057  0.10176228  0.28659709     0.40200
H3996       H  0.45621711  0.12098331  0.31772316     0.35090
C3997       C  0.58565421  0.43900141  0.37389991    -0.26640
C3998       C  0.58649710  0.43621917  0.40485763    -0.14720
C3999       C  0.61476951  0.42313024  0.41961001     0.35910
C4000       C  0.63950231  0.41005398  0.40344967    -0.26090
C4001       C  0.63766409  0.40941325  0.37225095    -0.15330
C4002       C  0.61068028  0.42603980  0.35752069     0.37000
N4003       N  0.60782651  0.42870139  0.32570440    -0.89580
H4004       H  0.56492682  0.45010367  0.36217270     0.18110
H4005       H  0.65889741  0.39823886  0.41625602     0.18100
N4006       N  0.61866562  0.42237876  0.45140527    -0.88610
H4007       H  0.60589186  0.45306335  0.31972402     0.35480
H4008       H  0.58664733  0.41815398  0.31860118     0.40580
H4009       H  0.63928248  0.43456396  0.45733565     0.40200
H4010       H  0.62206179  0.39846528  0.45860782     0.35090
C4011       C  0.37134064  0.54649128  0.57674428    -0.26640
C4012       C  0.40301257  0.54997141  0.58728356    -0.14720
C4013       C  0.40899559  0.57016022  0.61122912     0.35910
C4014       C  0.38388124  0.58895467  0.62138457    -0.26090
C4015       C  0.35242145  0.59014025  0.60776530    -0.15330
C4016       C  0.34599547  0.56579370  0.58660675     0.37000
N4017       N  0.31469473  0.55966503  0.57423458    -0.89580
H4018       H  0.36650405  0.52988442  0.55897466     0.18110
H4019       H  0.38997555  0.60285998  0.64066832     0.18100
N4020       N  0.44022687  0.57394234  0.62493117    -0.88610
H4021       H  0.31523372  0.56160864  0.55106026     0.35480
H4022       H  0.29785791  0.57667654  0.58034705     0.40580
H4023       H  0.45759868  0.55934809  0.61568315     0.40200
H4024       H  0.43938514  0.56656017  0.64723038     0.35090
C4025       C  0.43755277  0.62066081  0.39548585    -0.26640
C4026       C  0.42424707  0.59170117  0.40439570    -0.14720
C4027       C  0.39129873  0.59170659  0.40827223     0.35910
C4028       C  0.37304150  0.61997157  0.40342188    -0.26090
C4029       C  0.38390319  0.64628060  0.38731823    -0.15330
C4030       C  0.41792978  0.64810603  0.38716951     0.37000
N4031       N  0.43272039  0.67792414  0.38079481    -0.89580
H4032       H  0.46321373  0.62255119  0.39681068     0.18110
H4033       H  0.35012097  0.62086559  0.41232890     0.18100
N4034       N  0.37685725  0.56344211  0.41965782    -0.88610
H4035       H  0.45755296  0.67482066  0.38114996     0.35480
H4036       H  0.42752275  0.69376330  0.39774428     0.40580
H4037       H  0.37939075  0.54554912  0.40388717     0.40200
H4038       H  0.35233672  0.56745432  0.42175646     0.35090
C4039       C  0.40535027  0.44655653  0.61488554    -0.26640
C4040       C  0.42115452  0.42635156  0.59542046    -0.14720
C4041       C  0.42158369  0.39313823  0.60017677     0.35910
C4042       C  0.40578818  0.38066630  0.62400421    -0.26090
C4043       C  0.38756260  0.40024769  0.64313423    -0.15330
C4044       C  0.38808653  0.43413324  0.63828435     0.37000
N4045       N  0.37091325  0.45638416  0.65593421    -0.89580
H4046       H  0.40563904  0.47234693  0.61134981     0.18110
H4047       H  0.40715790  0.35485936  0.62735510     0.18100
N4048       N  0.43820126  0.37147772  0.58138773    -0.88610
H4049       H  0.35518498  0.47023822  0.64188720     0.35480
H4050       H  0.38725295  0.47178184  0.66577187     0.40580
H4051       H  0.46209511  0.37770820  0.58122342     0.40200
H4052       H  0.42823194  0.37410251  0.55976375     0.35090
C4053       C  0.59524159  0.56671651  0.39033663    -0.26640
C4054       C  0.56218115  0.56669491  0.38903009    -0.14720
C4055       C  0.54528059  0.57922249  0.36328517     0.35910
C4056       C  0.56153190  0.59585014  0.34177673    -0.26090
C4057       C  0.59437965  0.60158780  0.34571121    -0.15330
C4058       C  0.61186219  0.58365336  0.36932594     0.37000
N4059       N  0.64586984  0.58399586  0.37497438    -0.89580
H4060       H  0.60840651  0.55486015  0.40895555     0.18110
H4061       H  0.54761557  0.60577348  0.32286852     0.18100
N4062       N  0.51142202  0.57704151  0.35900408    -0.88610
H4063       H  0.65018912  0.59296758  0.39627690     0.35480
H4064       H  0.65700503  0.59940116  0.36095668     0.40580
H4065       H  0.50058779  0.58648227  0.37753844     0.40200
H4066       H  0.50586481  0.55292180  0.35710675     0.35090
C4067       C  0.60357081  0.40535610  0.58116201    -0.26640
C4068       C  0.57120880  0.40748678  0.58728356    -0.14720
C4069       C  0.55814677  0.38304958  0.60452189     0.35910
C4070       C  0.57794718  0.35715759  0.61515148    -0.26090
C4071       C  0.61084572  0.35419379  0.60867055    -0.15330
C4072       C  0.62318087  0.37933383  0.59104545     0.37000
N4073       N  0.65600986  0.37898188  0.58345622    -0.89580
H4074       H  0.61357422  0.42362237  0.56717970     0.18110
H4075       H  0.56702554  0.34024041  0.62964019     0.18100
N4076       N  0.52488664  0.38303806  0.61104660    -0.88610
H4077       H  0.66609414  0.39979036  0.59169083     0.35480
H4078       H  0.65699247  0.38028844  0.56028746     0.40580
H4079       H  0.51247620  0.40333679  0.60217418     0.40200
H4080       H  0.52334638  0.38415565  0.63414868     0.35090
loop_ 
_geom_bond_atom_site_label_1 
_geom_bond_atom_site_label_2 
_geom_bond_distance 
_geom_bond_site_symmetry_2 
_ccdc_geom_bond_type 
Zr1           O2   2.433       .  S
Zr1           O3   2.348       .  S
Zr1           O4   2.495       .  S
Zr1           O7   2.500       .  S
Zr1           O9   2.382       .  S
Zr1          O10   2.386       .  S
Zr1          O11   2.406       .  S
Zr1          O12   2.403       .  S
O2           H58   0.990       .  S
O2           H66   0.990       .  S
O3           C23   1.269       .  A
O4           C25   1.296       .  A
O5          Zr15   2.372       .  S
O5           C24   1.273       .  A
O6          Zr14   2.368       .  S
O6           C25   1.273       .  A
O7           C24   1.298       .  A
O8          Zr16   2.480       .  S
O8           C23   1.296       .  A
O9          Zr14   2.366       .  S
O9          Zr16   2.353       .  S
O10         Zr15   2.367       .  S
O10         Zr16   2.350       .  S
O10          H45   0.964       .  S
O11         Zr14   2.399       .  S
O11         Zr31   2.402       .  S
O11          H48   0.966       .  S
O12         Zr15   2.388       .  S
O12         Zr31   2.399       .  S
Zr13         O38   2.435       .  S
Zr13         O32   2.390       .  S
Zr13         O40   2.470       .  S
Zr13         O28   2.458       .  S
Zr13         O19   2.401       .  S
Zr13         O20   2.413       .  S
Zr13         O21   2.366       .  S
Zr13         O22   2.381       .  S
Zr14         O33   2.437       .  S
Zr14         O26   2.437       .  S
Zr14         O27   2.375       .  S
Zr14         O20   2.382       .  S
Zr14         O21   2.356       .  S
Zr15         O17   2.436       .  S
Zr15         O39   2.436       .  S
Zr15         O41   2.366       .  S
Zr15         O19   2.380       .  S
Zr15         O22   2.366       .  S
Zr16         O42   2.435       .  S
Zr16         O43   2.435       .  S
Zr16         O18   2.436       .  S
Zr16         O19   2.415       .  S
Zr16         O20   2.413       .  S
O17          H54   0.991       .  S
O18          H49   0.990       .  S
O18          H63   0.990       .  S
O20          H46   0.966       .  S
O21         Zr31   2.355       .  S
O22         Zr31   2.369       .  S
O22          H47   0.965       .  S
C23        C4054   1.466       .  S
C24        C3998   1.492       .  S
C25        C4026   1.473       .  S
O26          H62   0.990       .  S
O27          C29   1.274       .  A
O28          C29   1.290       .  A
C29        C4012   1.468       .  S
O30         Zr31   2.439       .  S
O30          H59   0.990       .  S
Zr31         O34   2.437       .  S
Zr31         O35   2.440       .  S
Zr31         O36   2.441       .  S
O32          C37   1.277       .  A
O33          H50   0.990       .  S
O33          H65   0.989       .  S
O34          H51   0.990       .  S
O35          H55   0.990       .  S
O35          H64   0.989       .  S
O36          C37   1.286       .  A
C37        C4040   1.457       .  S
O38          H57   0.990       .  S
O38          H61   0.990       .  S
O39          H53   0.990       .  S
O39          H60   0.989       .  S
O40          C44   1.291       .  A
O41          C44   1.272       .  A
O42          H52   0.990       .  S
O43          H56   0.990       .  S
C44        C4068   1.466       .  S
Zr67         O68   2.434       .  S
Zr67         O69   2.375       .  S
Zr67         O70   2.526       .  S
Zr67         O73   2.536       .  S
Zr67         O75   2.388       .  S
Zr67         O76   2.386       .  S
Zr67         O77   2.410       .  S
Zr67         O78   2.409       .  S
O68         H124   0.990       .  S
O68         H132   0.990       .  S
O69          C89   1.275       .  A
O70          C91   1.304       .  A
O71         Zr81   2.351       .  S
O71          C90   1.267       .  A
O72         Zr80   2.368       .  S
O72          C91   1.272       .  A
O73          C90   1.305       .  A
O74         Zr82   2.457       .  S
O74          C89   1.288       .  A
O75         Zr80   2.371       .  S
O75         Zr82   2.366       .  S
O76         Zr81   2.367       .  S
O76         Zr82   2.356       .  S
O76         H111   0.964       .  S
O77         Zr80   2.393       .  S
O77         Zr97   2.404       .  S
O77         H114   0.966       .  S
O78         Zr81   2.389       .  S
O78         Zr97   2.401       .  S
Zr79        O104   2.433       .  S
Zr79         O98   2.386       .  S
Zr79        O106   2.554       .  S
Zr79         O94   2.520       .  S
Zr79         O85   2.411       .  S
Zr79         O86   2.428       .  S
Zr79         O87   2.395       .  S
Zr79         O88   2.379       .  S
Zr80         O99   2.438       .  S
Zr80         O92   2.435       .  S
Zr80         O93   2.371       .  S
Zr80         O86   2.403       .  S
Zr80         O87   2.376       .  S
Zr81         O83   2.441       .  S
Zr81        O105   2.440       .  S
Zr81        O107   2.356       .  S
Zr81         O85   2.371       .  S
Zr81         O88   2.367       .  S
Zr82        O108   2.437       .  S
Zr82        O109   2.435       .  S
Zr82         O84   2.437       .  S
Zr82         O85   2.423       .  S
Zr82         O86   2.388       .  S
O83         H120   0.990       .  S
O84         H115   0.990       .  S
O84         H129   0.990       .  S
O86         H112   0.966       .  S
O87         Zr97   2.369       .  S
O88         Zr97   2.361       .  S
O88         H113   0.965       .  S
C89        C3917   1.458       .  S
C90        C3984   1.490       .  S
C91        C3973   1.499       .  S
O92         H128   0.990       .  S
O93          C95   1.265       .  A
O94          C95   1.297       .  A
C95        C3959   1.501       .  S
O96         Zr97   2.439       .  S
O96         H125   0.990       .  S
Zr97        O100   2.437       .  S
Zr97        O101   2.440       .  S
Zr97        O102   2.446       .  S
O98         C103   1.277       .  A
O99         H116   0.990       .  S
O99         H131   0.989       .  S
O100        H117   0.990       .  S
O101        H121   0.990       .  S
O101        H130   0.990       .  S
O102        C103   1.286       .  A
C103       C3928   1.456       .  S
O104        H123   0.990       .  S
O104        H127   0.990       .  S
O105        H119   0.984       .  S
O105        H126   0.987       .  S
O106        C110   1.309       .  A
O107        C110   1.268       .  A
O108        H118   0.990       .  S
O109        H122   0.990       .  S
C110       C3942   1.505       .  S
C133       C3886   1.548   1_556  S
C133        C134   1.436       .  A
C133        C138   1.420       .  A
C134        C135   1.428       .  A
C134        H139   1.077       .  S
C135       C3900   1.525       .  S
C135        C136   1.413       .  A
C136        C137   1.392       .  A
C136        H140   1.083       .  S
C137       C3872   1.500       .  S
C137        C138   1.400       .  A
C138        H141   1.064       .  S
C142       C3844   1.487   1_556  S
C142        C143   1.415       .  A
C142        C147   1.401       .  A
C143        C144   1.417       .  A
C143        H148   1.077       .  S
C144       C3858   1.496   1_655  S
C144        C145   1.397       .  A
C145        C146   1.385   1_565  A
C145        H149   1.085       .  S
C146       C3830   1.463       .  S
C146        C147   1.390   1_545  A
C147        H150   1.085   1_565  S
C151       C3802   1.517   1_655  S
C151        C152   1.408       .  A
C151        C156   1.417       .  A
C152        C153   1.408       .  A
C152        H157   1.081       .  S
C153       C3816   1.488       .  S
C153        C154   1.404       .  A
C154        C155   1.408       .  A
C154        H158   1.084       .  S
C155       C3788   1.509       .  S
C155        C156   1.422       .  A
C156        H159   1.080       .  S
C160       C3763   1.589       .  S
C160       C3777   1.563       .  S
C160       C3805   1.592       .  S
C160       C3861   1.553       .  S
C161       C3735   1.564       .  S
C161       C3746   1.585       .  S
C161       C3847   1.585       .  S
C161       C3889   1.605       .  S
C162       C3718   1.479   1_565  S
C162        C163   1.400       .  A
C162        C167   1.399       .  A
C163        C164   1.401       .  A
C163        H168   1.084       .  S
C164       C3690   1.484       .  S
C164        C165   1.408       .  A
C165        C166   1.411       .  A
C165        H169   1.082       .  S
C166       C3704   1.499       .  S
C166        C167   1.409       .  A
C167        H170   1.083       .  S
C171       C3662   1.583       .  S
C171       C3676   1.597       .  S
C171       C3707   1.562       .  S
C171       C3819   1.592       .  S
C172       C3634   1.574       .  S
C172       C3648   1.565       .  S
C172       C3791   1.598       .  S
C172       C3903   1.582       .  S
C173       C3606   1.561       .  S
C173       C3620   1.561       .  S
C173       C3693   1.576       .  S
C173       C3875   1.590       .  S
C174       C3578   1.556       .  S
C174       C3592   1.578       .  S
C174       C3721   1.590       .  S
C174       C3833   1.539       .  S
Zr175       O176   2.434       .  S
Zr175       O177   2.382       .  S
Zr175       O178   2.510       .  S
Zr175       O181   2.522       .  S
Zr175       O183   2.376       .  S
Zr175       O184   2.386       .  S
Zr175       O185   2.423       .  S
Zr175       O186   2.418       .  S
O176        H232   0.990       .  S
O176        H240   0.990       .  S
O177        C197   1.276       .  A
O178        C199   1.297       .  A
O179       Zr189   2.327       .  S
O179        C198   1.265       .  A
O180       Zr188   2.368       .  S
O180        C199   1.268       .  A
O181        C198   1.299       .  A
O182       Zr190   2.483       .  S
O182        C197   1.294       .  A
O183       Zr188   2.371       .  S
O183       Zr190   2.348       .  S
O184       Zr189   2.372       .  S
O184       Zr190   2.346       .  S
O184        H219   0.964       .  S
O185       Zr188   2.395       .  S
O185       Zr205   2.407       .  S
O185        H222   0.966       .  S
O186       Zr189   2.385       .  S
O186       Zr205   2.416       .  S
Zr187       O212   2.433       .  S
Zr187       O206   2.345       .  S
Zr187       O214   2.509       .  S
Zr187       O202   2.500       .  S
Zr187       O193   2.400       .  S
Zr187       O194   2.404       .  S
Zr187       O195   2.369       .  S
Zr187       O196   2.379       .  S
Zr188       O207   2.441       .  S
Zr188       O200   2.434       .  S
Zr188       O201   2.373       .  S
Zr188       O194   2.391       .  S
Zr188       O195   2.353       .  S
Zr189       O191   2.436       .  S
Zr189       O213   2.437       .  S
Zr189       O215   2.359       .  S
Zr189       O193   2.384       .  S
Zr189       O196   2.356       .  S
Zr190       O216   2.435       .  S
Zr190       O217   2.434       .  S
Zr190       O192   2.436       .  S
Zr190       O193   2.415       .  S
Zr190       O194   2.414       .  S
O191        H228   0.990       .  S
O192        H223   0.990       .  S
O192        H237   0.990       .  S
O194        H220   0.966       .  S
O195       Zr205   2.351       .  S
O196       Zr205   2.349       .  S
O196        H221   0.964       .  S
C197       C3550   1.474       .  S
C198       C3536   1.510       .  S
C199       C3522   1.484       .  S
O200        H236   0.990       .  S
O201        C203   1.273       .  A
O202        C203   1.298       .  A
C203       C3508   1.475       .  S
O204       Zr205   2.438       .  S
O204        H233   0.991       .  S
Zr205       O208   2.437       .  S
Zr205       O209   2.440       .  S
Zr205       O210   2.472       .  S
O206        C211   1.269       .  A
O207        H224   0.990       .  S
O207        H239   0.989       .  S
O208        H225   0.990       .  S
O209        H229   0.990       .  S
O209        H238   0.989       .  S
O210        C211   1.293       .  A
C211       C3567   1.455       .  S
O212        H231   0.990       .  S
O212        H235   0.990       .  S
O213        H227   0.990       .  S
O213        H234   0.990       .  S
O214        C218   1.301       .  A
O215        C218   1.271       .  A
O216        H226   0.990       .  S
O217        H230   0.990       .  S
C218       C3497   1.476       .  S
Zr241       O242   2.435       .  S
Zr241       O243   2.399       .  S
Zr241       O244   2.476       .  S
Zr241       O247   2.487       .  S
Zr241       O249   2.385       .  S
Zr241       O250   2.382       .  S
Zr241       O251   2.412       .  S
Zr241       O252   2.411       .  S
O242        H298   0.990       .  S
O242        H306   0.990       .  S
O243        C263   1.279       .  A
O244        C265   1.293       .  A
O245       Zr255   2.358       .  S
O245        C264   1.270       .  A
O246       Zr254   2.358       .  S
O246        C265   1.270       .  A
O247        C264   1.295       .  A
O248       Zr256   2.454       .  S
O248        C263   1.289       .  A
O249       Zr254   2.373       .  S
O249       Zr256   2.367       .  S
O250       Zr255   2.369       .  S
O250       Zr256   2.344       .  S
O250        H285   0.964       .  S
O251       Zr254   2.388       .  S
O251       Zr271   2.408       .  S
O251        H288   0.966       .  S
O252       Zr255   2.388       .  S
O252       Zr271   2.419       .  S
Zr253       O278   2.433       .  S
Zr253       O272   2.363       .  S
Zr253       O280   2.495       .  S
Zr253       O268   2.486       .  S
Zr253       O259   2.407       .  S
Zr253       O260   2.415       .  S
Zr253       O261   2.380       .  S
Zr253       O262   2.379       .  S
Zr254       O273   2.435       .  S
Zr254       O266   2.434       .  S
Zr254       O267   2.363       .  S
Zr254       O260   2.396       .  S
Zr254       O261   2.364       .  S
Zr255       O257   2.435       .  S
Zr255       O279   2.436       .  S
Zr255       O281   2.360       .  S
Zr255       O259   2.385       .  S
Zr255       O262   2.368       .  S
Zr256       O282   2.436       .  S
Zr256       O283   2.435       .  S
Zr256       O258   2.436       .  S
Zr256       O259   2.413       .  S
Zr256       O260   2.391       .  S
O257        H294   0.990       .  S
O258        H289   0.990       .  S
O258        H303   0.990       .  S
O260        H286   0.966       .  S
O261       Zr271   2.356       .  S
O262       Zr271   2.349       .  S
O262        H287   0.964       .  S
C263       C3441   1.472       .  S
C264       C3483   1.460       .  S
C265       C3427   1.471       .  S
O266        H302   0.990       .  S
O267        C269   1.267       .  A
O268        C269   1.289       .  A
C269       C3466   1.478       .  S
O270       Zr271   2.439       .  S
O270        H299   0.990       .  S
Zr271       O274   2.437       .  S
Zr271       O275   2.440       .  S
Zr271       O276   2.482       .  S
O272        C277   1.273       .  A
O273        H290   0.990       .  S
O273        H305   0.989       .  S
O274        H291   0.990       .  S
O275        H295   0.990       .  S
O275        H304   0.989       .  S
O276        C277   1.295       .  A
C277       C3410   1.462       .  S
O278        H297   0.990       .  S
O278        H301   0.990       .  S
O279        H293   0.990       .  S
O279        H300   0.989       .  S
O280        C284   1.298       .  A
O281        C284   1.271       .  A
O282        H292   0.990       .  S
O283        H296   0.990       .  S
C284       C3452   1.480       .  S
Zr307       O308   2.434       .  S
Zr307       O309   2.374       .  S
Zr307       O310   2.548       .  S
Zr307       O313   2.519       .  S
Zr307       O315   2.371       .  S
Zr307       O316   2.393       .  S
Zr307       O317   2.410       .  S
Zr307       O318   2.416       .  S
O308        H364   0.990       .  S
O308        H372   0.990       .  S
O309        C329   1.275       .  A
O310        C331   1.306       .  A
O311       Zr321   2.315       .  S
O311        C330   1.262       .  A
O312       Zr320   2.376       .  S
O312        C331   1.268       .  A
O313        C330   1.302       .  A
O314       Zr322   2.458       .  S
O314        C329   1.290       .  A
O315       Zr320   2.354       .  S
O315       Zr322   2.351       .  S
O316       Zr321   2.375       .  S
O316       Zr322   2.358       .  S
O316        H351   0.965       .  S
O317       Zr320   2.386       .  S
O317       Zr337   2.409       .  S
O317        H354   0.966       .  S
O318       Zr321   2.385       .  S
O318       Zr337   2.407       .  S
Zr319       O344   2.434       .  S
Zr319       O338   2.371       .  S
Zr319       O346   2.522       .  S
Zr319       O334   2.478       .  S
Zr319       O325   2.396       .  S
Zr319       O326   2.416       .  S
Zr319       O327   2.382       .  S
Zr319       O328   2.373       .  S
Zr320       O339   2.441       .  S
Zr320       O332   2.430       .  S
Zr320       O333   2.333       .  S
Zr320       O326   2.394       .  S
Zr320       O327   2.366       .  S
Zr321       O323   2.435       .  S
Zr321       O345   2.438       .  S
Zr321       O347   2.355       .  S
Zr321       O325   2.375       .  S
Zr321       O328   2.353       .  S
Zr322       O348   2.435       .  S
Zr322       O349   2.435       .  S
Zr322       O324   2.437       .  S
Zr322       O325   2.412       .  S
Zr322       O326   2.401       .  S
O323        H360   0.990       .  S
O324        H355   0.990       .  S
O324        H369   0.990       .  S
O326        H352   0.966       .  S
O327       Zr337   2.350       .  S
O328       Zr337   2.364       .  S
O328        H353   0.965       .  S
C329       C3340   1.463       .  S
C330       C3371   1.486       .  S
C331       C3354   1.517       .  S
O332        H368   0.990       .  S
O333        C335   1.267       .  A
O334        C335   1.294       .  A
C335       C3396   1.451       .  S
O336       Zr337   2.439       .  S
O336        H365   0.990       .  S
Zr337       O340   2.437       .  S
Zr337       O341   2.441       .  S
Zr337       O342   2.458       .  S
O338        C343   1.273       .  A
O339        H356   0.990       .  S
O339        H371   0.990       .  S
O340        H357   0.990       .  S
O341        H361   0.990       .  S
O341        H370   0.989       .  S
O342        C343   1.292       .  A
C343       C3623   1.473       .  S
O344        H363   0.990       .  S
O344        H367   0.990       .  S
O345        H359   0.990       .  S
O345        H366   0.990       .  S
O346        C350   1.301       .  A
O347        C350   1.270       .  A
O348        H358   0.990       .  S
O349        H362   0.990       .  S
C350       C3385   1.488       .  S
Zr373       O374   2.435   1_554  S
Zr373       O375   2.376       .  S
Zr373       O376   2.465   1_554  S
Zr373       O379   2.456       .  S
Zr373       O381   2.384   1_554  S
Zr373       O382   2.391       .  S
Zr373       O383   2.393   1_554  S
Zr373       O384   2.399       .  S
O374        H430   0.990       .  S
O374        H438   0.990       .  S
O375        C395   1.274       .  A
O376        C397   1.291       .  A
O377       Zr387   2.367       .  S
O377        C396   1.270       .  A
O378       Zr386   2.338       .  S
O378        C397   1.267       .  A
O379        C396   1.289       .  A
O380       Zr388   2.444       .  S
O380        C395   1.288       .  A
O381       Zr386   2.368       .  S
O381       Zr388   2.363   1_556  S
O382       Zr387   2.383       .  S
O382       Zr388   2.349       .  S
O382        H417   0.965       .  S
O383       Zr386   2.390       .  S
O383       Zr403   2.385       .  S
O383        H420   0.966       .  S
O384       Zr387   2.387       .  S
O384       Zr403   2.394   1_554  S
Zr385       O410   2.433   1_556  S
Zr385       O404   2.376       .  S
Zr385       O412   2.439   1_556  S
Zr385       O400   2.465       .  S
Zr385       O391   2.410   1_556  S
Zr385       O392   2.401       .  S
Zr385       O393   2.371       .  S
Zr385       O394   2.403       .  S
Zr386       O405   2.438       .  S
Zr386       O398   2.437       .  S
Zr386       O399   2.361       .  S
Zr386       O392   2.378       .  S
Zr386       O393   2.355       .  S
Zr387       O389   2.438       .  S
Zr387       O411   2.447       .  S
Zr387       O413   2.405       .  S
Zr387       O391   2.388       .  S
Zr387       O394   2.370   1_554  S
Zr388       O414   2.436       .  S
Zr388       O415   2.435       .  S
Zr388       O390   2.436       .  S
Zr388       O391   2.399       .  S
Zr388       O392   2.399   1_554  S
O389        H426   0.990       .  S
O390        H421   0.990       .  S
O390        H435   0.990       .  S
O392        H418   0.966       .  S
O393       Zr403   2.369       .  S
O394       Zr403   2.365       .  S
O394        H419   0.965       .  S
C395       C3270   1.478       .  S
C396       C3329   1.448       .  S
C397       C3774   1.459       .  S
O398        H434   0.990       .  S
O399        C401   1.272       .  A
O400        C401   1.290       .  A
C401       C3284   1.482       .  S
O402       Zr403   2.441       .  S
O402        H431   0.990       .  S
Zr403       O406   2.437       .  S
Zr403       O407   2.441       .  S
Zr403       O408   2.420       .  S
O404        C409   1.275       .  A
O405        H422   0.990       .  S
O405        H437   0.990       .  S
O406        H423   0.990       .  S
O407        H427   0.990       .  S
O407        H436   0.989       .  S
O408        C409   1.284       .  A
C409       C3298   1.460       .  S
O410        H429   0.990       .  S
O410        H433   0.990   1_554  S
O411        H425   0.991       .  S
O411        H432   0.990       .  S
O412        C416   1.280       .  A
O413        C416   1.272       .  A
O414        H424   0.990       .  S
O415        H428   0.990       .  S
C416       C3312   1.480       .  S
Zr439       O440   2.434       .  S
Zr439       O441   2.382   1_655  S
Zr439       O442   2.467       .  S
Zr439       O445   2.513   1_655  S
Zr439       O447   2.381       .  S
Zr439       O448   2.368   1_655  S
Zr439       O449   2.416       .  S
Zr439       O450   2.401       .  S
O440        H496   0.990       .  S
O440        H504   0.990       .  S
O441        C461   1.276       .  A
O442        C463   1.294       .  A
O443       Zr453   2.372       .  S
O443        C462   1.272       .  A
O444       Zr452   2.378       .  S
O444        C463   1.275       .  A
O445        C462   1.300       .  A
O446       Zr454   2.493       .  S
O446        C461   1.296       .  A
O447       Zr452   2.375       .  S
O447       Zr454   2.354   1_655  S
O448       Zr453   2.361       .  S
O448       Zr454   2.349       .  S
O448        H483   0.963       .  S
O449       Zr452   2.399       .  S
O449       Zr469   2.405       .  S
O449        H486   0.966       .  S
O450       Zr453   2.381   1_655  S
O450       Zr469   2.418       .  S
Zr451       O476   2.434   1_655  S
Zr451       O470   2.370       .  S
Zr451       O478   2.515   1_655  S
Zr451       O466   2.516       .  S
Zr451       O457   2.413   1_655  S
Zr451       O458   2.422       .  S
Zr451       O459   2.372       .  S
Zr451       O460   2.380       .  S
Zr452       O471   2.441       .  S
Zr452       O464   2.436   1_556  S
Zr452       O465   2.392   1_556  S
Zr452       O458   2.391   1_556  S
Zr452       O459   2.362   1_556  S
Zr453       O455   2.436       .  S
Zr453       O477   2.436       .  S
Zr453       O479   2.337   1_556  S
Zr453       O457   2.391   1_556  S
Zr453       O460   2.377   1_456  S
Zr454       O480   2.435       .  S
Zr454       O481   2.435   1_556  S
Zr454       O456   2.437       .  S
Zr454       O457   2.421   1_556  S
Zr454       O458   2.420   1_456  S
O455        H492   0.990       .  S
O456        H487   0.990       .  S
O456        H501   0.990       .  S
O458        H484   0.966   1_655  S
O459       Zr469   2.349   1_554  S
O460       Zr469   2.347   1_554  S
O460        H485   0.965       .  S
C461       C3214   1.482       .  S
C462       C3242   1.479       .  S
C463       C3651   1.472       .  S
O464        H500   0.990       .  S
O465        C467   1.279       .  A
O466        C467   1.301       .  A
C467       C3228   1.503       .  S
O468       Zr469   2.439       .  S
O468        H497   0.990       .  S
Zr469       O472   2.436       .  S
Zr469       O473   2.440       .  S
Zr469       O474   2.476   1_556  S
O470        C475   1.274       .  A
O471        H488   0.990       .  S
O471        H503   0.990       .  S
O472        H489   0.990       .  S
O473        H493   0.990   1_556  S
O473        H502   0.990       .  S
O474        C475   1.294       .  A
C475       C3256   1.492       .  S
O476        H495   0.990       .  S
O476        H499   0.990       .  S
O477        H491   0.990       .  S
O477        H498   0.990       .  S
O478        C482   1.301       .  A
O479        C482   1.269       .  A
O480        H490   0.990       .  S
O481        H494   0.990       .  S
C482       C3200   1.478       .  S
Zr505       O506   2.434       .  S
Zr505       O507   2.369   1_545  S
Zr505       O508   2.540       .  S
Zr505       O511   2.527   1_545  S
Zr505       O513   2.377       .  S
Zr505       O514   2.389   1_545  S
Zr505       O515   2.410       .  S
Zr505       O516   2.416       .  S
O506        H562   0.990       .  S
O506        H570   0.990       .  S
O507        C527   1.274       .  A
O508        C529   1.305       .  A
O509       Zr519   2.375       .  S
O509        C528   1.274       .  A
O510       Zr518   2.339       .  S
O510        C529   1.267       .  A
O511        C528   1.303       .  A
O512       Zr520   2.481       .  S
O512        C527   1.294       .  A
O513       Zr518   2.365       .  S
O513       Zr520   2.363   1_545  S
O514       Zr519   2.369       .  S
O514       Zr520   2.354       .  S
O514        H549   0.965       .  S
O515       Zr518   2.381       .  S
O515       Zr535   2.410       .  S
O515        H552   0.966       .  S
O516       Zr519   2.394   1_545  S
O516       Zr535   2.418       .  S
Zr517       O542   2.433   1_545  S
Zr517       O536   2.379       .  S
Zr517       O544   2.521   1_545  S
Zr517       O532   2.530       .  S
Zr517       O523   2.424   1_545  S
Zr517       O524   2.419       .  S
Zr517       O525   2.374       .  S
Zr517       O526   2.387       .  S
Zr518       O537   2.438       .  S
Zr518       O530   2.435       .  S
Zr518       O531   2.328       .  S
Zr518       O524   2.382       .  S
Zr518       O525   2.361       .  S
Zr519       O521   2.433       .  S
Zr519       O543   2.437       .  S
Zr519       O545   2.385       .  S
Zr519       O523   2.384       .  S
Zr519       O526   2.362   1_565  S
Zr520       O546   2.435       .  S
Zr520       O547   2.435       .  S
Zr520       O522   2.436       .  S
Zr520       O523   2.419       .  S
Zr520       O524   2.417   1_565  S
O521        H558   0.990       .  S
O522        H553   0.990       .  S
O522        H567   0.990       .  S
O524        H550   0.966       .  S
O525       Zr535   2.359       .  S
O526       Zr535   2.347       .  S
O526        H551   0.963       .  S
C527       C3172   1.476       .  S
C528       C3144   1.494       .  S
C529       C3161   1.496       .  S
O530        H566   0.989       .  S
O531        C533   1.265       .  A
O532        C533   1.303       .  A
C533       C3186   1.486       .  S
O534       Zr535   2.439       .  S
O534        H563   0.990       .  S
Zr535       O538   2.437       .  S
Zr535       O539   2.439       .  S
Zr535       O540   2.478       .  S
O536        C541   1.276       .  A
O537        H554   0.990       .  S
O537        H569   0.988       .  S
O538        H555   0.990       .  S
O539        H559   0.990       .  S
O539        H568   0.990       .  S
O540        C541   1.295       .  A
C541       C3130   1.493       .  S
O542        H561   0.990       .  S
O542        H565   0.990       .  S
O543        H557   0.990       .  S
O543        H564   0.990       .  S
O544        C548   1.301       .  A
O545        C548   1.277       .  A
O546        H556   0.990       .  S
O547        H560   0.990       .  S
C548       C3760   1.511       .  S
Zr571       O572   2.435       .  S
Zr571       O573   2.382       .  S
Zr571       O574   2.448       .  S
Zr571       O577   2.456       .  S
Zr571       O579   2.375       .  S
Zr571       O580   2.378       .  S
Zr571       O581   2.403       .  S
Zr571       O582   2.404       .  S
O572        H628   0.990       .  S
O572        H636   0.990       .  S
O573        C593   1.275       .  A
O574        C595   1.288       .  A
O575       Zr585   2.385       .  S
O575        C594   1.276       .  A
O576       Zr584   2.376       .  S
O576        C595   1.270       .  A
O577        C594   1.291       .  A
O578       Zr586   2.502       .  S
O578        C593   1.298       .  A
O579       Zr584   2.369       .  S
O579       Zr586   2.360       .  S
O580       Zr585   2.374       .  S
O580       Zr586   2.336       .  S
O580        H615   0.963       .  S
O581       Zr584   2.402       .  S
O581       Zr601   2.421       .  S
O581        H618   0.966       .  S
O582       Zr585   2.392       .  S
O582       Zr601   2.410       .  S
Zr583       O608   2.433       .  S
Zr583       O602   2.382       .  S
Zr583       O610   2.485       .  S
Zr583       O598   2.505       .  S
Zr583       O589   2.413       .  S
Zr583       O590   2.424       .  S
Zr583       O591   2.356       .  S
Zr583       O592   2.385       .  S
Zr584       O603   2.444       .  S
Zr584       O596   2.437       .  S
Zr584       O597   2.393       .  S
Zr584       O590   2.396       .  S
Zr584       O591   2.356       .  S
Zr585       O587   2.435       .  S
Zr585       O609   2.436       .  S
Zr585       O611   2.379       .  S
Zr585       O589   2.397       .  S
Zr585       O592   2.372       .  S
Zr586       O612   2.436       .  S
Zr586       O613   2.434       .  S
Zr586       O588   2.436       .  S
Zr586       O589   2.428       .  S
Zr586       O590   2.418       .  S
O587        H624   0.990       .  S
O588        H619   0.990       .  S
O588        H633   0.990       .  S
O590        H616   0.966       .  S
O591       Zr601   2.323       .  S
O592       Zr601   2.353       .  S
O592        H617   0.963       .  S
C593       C3679   1.486       .  S
C594       C3088   1.459       .  S
C595       C3116   1.458       .  S
O596        H632   0.990       .  S
O597        C599   1.269       .  A
O598        C599   1.293       .  A
C599       C3060   1.465       .  S
O600       Zr601   2.439       .  S
O600        H629   0.990       .  S
Zr601       O604   2.437       .  S
Zr601       O605   2.439       .  S
Zr601       O606   2.487       .  S
O602        C607   1.275       .  A
O603        H620   0.990       .  S
O603        H635   0.990       .  S
O604        H621   0.990       .  S
O605        H625   0.990       .  S
O605        H634   0.990       .  S
O606        C607   1.299       .  A
C607       C3105   1.493       .  S
O608        H627   0.990       .  S
O608        H631   0.990       .  S
O609        H623   0.990       .  S
O609        H630   0.990       .  S
O610        C614   1.295       .  A
O611        C614   1.274       .  A
O612        H622   0.990       .  S
O613        H626   0.990       .  S
C614       C3074   1.465       .  S
Zr637       O638   2.434   1_655  S
Zr637       O639   2.401       .  S
Zr637       O640   2.487   1_655  S
Zr637       O643   2.437       .  S
Zr637       O645   2.376       .  S
Zr637       O646   2.406       .  S
Zr637       O647   2.398   1_655  S
Zr637       O648   2.421       .  S
O638        H694   0.990       .  S
O638        H702   0.990       .  S
O639        C659   1.279       .  A
O640        C661   1.294       .  A
O641       Zr651   2.405       .  S
O641        C660   1.275       .  A
O642       Zr650   2.366       .  S
O642        C661   1.270       .  A
O643        C660   1.282       .  A
O644       Zr652   2.393       .  S
O644        C659   1.277       .  A
O645       Zr650   2.361   1_655  S
O645       Zr652   2.375       .  S
O646       Zr651   2.376       .  S
O646       Zr652   2.359       .  S
O646        H681   0.965       .  S
O647       Zr650   2.383       .  S
O647       Zr667   2.415       .  S
O647        H684   0.966       .  S
O648       Zr651   2.401       .  S
O648       Zr667   2.407   1_655  S
Zr649       O674   2.435       .  S
Zr649       O668   2.358   1_655  S
Zr649       O676   2.440       .  S
Zr649       O664   2.459   1_655  S
Zr649       O655   2.394       .  S
Zr649       O656   2.385       .  S
Zr649       O657   2.378   1_655  S
Zr649       O658   2.384       .  S
Zr650       O669   2.433       .  S
Zr650       O662   2.441       .  S
Zr650       O663   2.358       .  S
Zr650       O656   2.395   1_455  S
Zr650       O657   2.372       .  S
Zr651       O653   2.440       .  S
Zr651       O675   2.442       .  S
Zr651       O677   2.404       .  S
Zr651       O655   2.389       .  S
Zr651       O658   2.378       .  S
Zr652       O678   2.435       .  S
Zr652       O679   2.436       .  S
Zr652       O654   2.437       .  S
Zr652       O655   2.392       .  S
Zr652       O656   2.364       .  S
O653        H690   0.990       .  S
O654        H685   0.990       .  S
O654        H699   0.990       .  S
O656        H682   0.966       .  S
O657       Zr667   2.367       .  S
O658       Zr667   2.344   1_655  S
O658        H683   0.964       .  S
C659       C3007   1.473       .  S
C660       C3021   1.474       .  S
C661       C3049   1.474       .  S
O662        H698   0.990       .  S
O663        C665   1.265       .  A
O664        C665   1.289       .  A
C665       C3032   1.460       .  S
O666       Zr667   2.439       .  S
O666        H695   0.990       .  S
Zr667       O670   2.437       .  S
Zr667       O671   2.439       .  S
Zr667       O672   2.477       .  S
O668        C673   1.271       .  A
O669        H686   0.987       .  S
O669        H701   0.987       .  S
O670        H687   0.990       .  S
O671        H691   0.990       .  S
O671        H700   0.990       .  S
O672        C673   1.294       .  A
C673       C2993   1.463       .  S
O674        H693   0.990       .  S
O674        H697   0.990       .  S
O675        H689   0.989       .  S
O675        H696   0.989       .  S
O676        C680   1.288       .  A
O677        C680   1.279       .  A
O678        H688   0.990       .  S
O679        H692   0.990       .  S
C680       C3749   1.465       .  S
Zr703       O704   2.434   1_545  S
Zr703       O705   2.390       .  S
Zr703       O706   2.465       .  S
Zr703       O709   2.478   1_545  S
Zr703       O711   2.375       .  S
Zr703       O712   2.377       .  S
Zr703       O713   2.416       .  S
Zr703       O714   2.406   1_545  S
O704        H760   0.990   1_565  S
O704        H768   0.990       .  S
O705        C725   1.277       .  A
O706        C727   1.290       .  A
O707       Zr717   2.372       .  S
O707        C726   1.273       .  A
O708       Zr716   2.362       .  S
O708        C727   1.270       .  A
O709        C726   1.294       .  A
O710       Zr718   2.478   1_556  S
O710        C725   1.292       .  A
O711       Zr716   2.381       .  S
O711       Zr718   2.359   1_556  S
O712       Zr717   2.377   1_545  S
O712       Zr718   2.354   1_556  S
O712        H747   0.965       .  S
O713       Zr716   2.399       .  S
O713       Zr733   2.409   1_545  S
O713        H750   0.966       .  S
O714       Zr717   2.393       .  S
O714       Zr733   2.414       .  S
Zr715       O740   2.434   1_565  S
Zr715       O734   2.365       .  S
Zr715       O742   2.457       .  S
Zr715       O730   2.466   1_565  S
Zr715       O721   2.399   1_565  S
Zr715       O722   2.406   1_565  S
Zr715       O723   2.364       .  S
Zr715       O724   2.380       .  S
Zr716       O735   2.440       .  S
Zr716       O728   2.436   1_556  S
Zr716       O729   2.403   1_556  S
Zr716       O722   2.391   1_556  S
Zr716       O723   2.350   1_546  S
Zr717       O719   2.435       .  S
Zr717       O741   2.435   1_556  S
Zr717       O743   2.389   1_556  S
Zr717       O721   2.392   1_566  S
Zr717       O724   2.370   1_556  S
Zr718       O744   2.435       .  S
Zr718       O745   2.435       .  S
Zr718       O720   2.437   1_554  S
Zr718       O721   2.419       .  S
Zr718       O722   2.413       .  S
O719        H756   0.990       .  S
O720        H751   0.990       .  S
O720        H765   0.990       .  S
O722        H748   0.966       .  S
O723       Zr733   2.339   1_554  S
O724       Zr733   2.355   1_554  S
O724        H749   0.964       .  S
C725       C2934   1.476       .  S
C726       C3609   1.461       .  S
C727       C2976   1.456       .  S
O728        H764   0.990       .  S
O729        C731   1.273       .  A
O730        C731   1.290       .  A
C731       C2923   1.467       .  S
O732       Zr733   2.438       .  S
O732        H761   0.990       .  S
Zr733       O736   2.437       .  S
Zr733       O737   2.440       .  S
Zr733       O738   2.479   1_556  S
O734        C739   1.273       .  A
O735        H752   0.990       .  S
O735        H767   0.990       .  S
O736        H753   0.990       .  S
O737        H757   0.990   1_556  S
O737        H766   0.990       .  S
O738        C739   1.294       .  A
C739       C2962   1.469       .  S
O740        H759   0.990       .  S
O740        H763   0.990       .  S
O741        H755   0.990       .  S
O741        H762   0.990       .  S
O742        C746   1.291       .  A
O743        C746   1.276       .  A
O744        H754   0.990   1_554  S
O745        H758   0.990       .  S
C746       C2948   1.459       .  S
C769       C2892   1.464       .  S
C769        C770   1.387       .  A
C769        C774   1.402       .  A
C770        C771   1.394       .  A
C770        H775   1.082       .  S
C771       C2906   1.484   1_565  S
C771        C772   1.416       .  A
C772        C773   1.412       .  A
C772        H776   1.083       .  S
C773       C2878   1.486       .  S
C773        C774   1.394       .  A
C774        H777   1.084       .  S
C778       C2864   1.494       .  S
C778        C779   1.401       .  A
C778        C783   1.408       .  A
C779        C780   1.404       .  A
C779        H784   1.084       .  S
C780       C2839   1.498       .  S
C780        C781   1.411       .  A
C781        C782   1.412       .  A
C781        H785   1.083       .  S
C782       C2853   1.489       .  S
C782        C783   1.408       .  A
C783        H786   1.083       .  S
C787       C2822   1.567       .  S
C787       C2850   1.599       .  S
C787       C3525   1.588       .  S
C787       C4029   1.588       .  S
C788       C2808   1.530   1_565  S
C788        C789   1.409       .  A
C788        C793   1.428       .  A
C789        C790   1.410       .  A
C789        H794   1.080       .  S
C790       C2794   1.509       .  S
C790        C791   1.410       .  A
C791        C792   1.415       .  A
C791        H795   1.078       .  S
C792       C2780   1.531       .  S
C792        C793   1.431       .  A
C793        H796   1.083       .  S
C797       C2825   1.526       .  S
C797        C798   1.422       .  A
C797        C802   1.407       .  A
C798        C799   1.414       .  A
C798        H803   1.076       .  S
C799       C2766   1.516       .  S
C799        C800   1.406       .  A
C800        C801   1.405       .  A
C800        H804   1.079       .  S
C801       C2752   1.501       .  S
C801        C802   1.408       .  A
C802        H805   1.068       .  S
C806       C2755   1.583       .  S
C806       C2783   1.616       .  S
C806       C3175   1.566       .  S
C806       C3357   1.588       .  S
C807       C2741   1.573       .  S
C807       C2769   1.595       .  S
C807       C2895   1.555       .  S
C807       C3035   1.546       .  S
C808       C2867   1.572       .  S
C808       C2881   1.579       .  S
C808       C2965   1.586       .  S
C808       C3326   1.555       .  S
C809       C2727   1.564       .  S
C809       C2797   1.612       .  S
C809       C2836   1.600       .  S
C809       C3077   1.576       .  S
C810       C2811   1.599       .  S
C810       C2909   1.558       .  S
C810       C3469   1.560       .  S
C810       C3987   1.580       .  S
Zr811       O812   2.433   1_545  S
Zr811       O813   2.344       .  S
Zr811       O814   2.512   1_545  S
Zr811       O817   2.530       .  S
Zr811       O819   2.382       .  S
Zr811       O820   2.374       .  S
Zr811       O821   2.412   1_545  S
Zr811       O822   2.407       .  S
O812        H868   0.990       .  S
O812        H876   0.990       .  S
O813        C833   1.270       .  A
O814        C835   1.300       .  A
O815       Zr825   2.367       .  S
O815        C834   1.270       .  A
O816       Zr824   2.352       .  S
O816        C835   1.269       .  A
O817        C834   1.305       .  A
O818       Zr826   2.504       .  S
O818        C833   1.299       .  A
O819       Zr824   2.361   1_545  S
O819       Zr826   2.348       .  S
O820       Zr825   2.365       .  S
O820       Zr826   2.338       .  S
O820        H855   0.963       .  S
O821       Zr824   2.398       .  S
O821       Zr841   2.411       .  S
O821        H858   0.965       .  S
O822       Zr825   2.386       .  S
O822       Zr841   2.425   1_545  S
Zr823       O848   2.433       .  S
Zr823       O842   2.372   1_545  S
Zr823       O850   2.525       .  S
Zr823       O838   2.531   1_545  S
Zr823       O829   2.416       .  S
Zr823       O830   2.428       .  S
Zr823       O831   2.367   1_545  S
Zr823       O832   2.379       .  S
Zr824       O843   2.440       .  S
Zr824       O836   2.436       .  S
Zr824       O837   2.364       .  S
Zr824       O830   2.387   1_565  S
Zr824       O831   2.363       .  S
Zr825       O827   2.435       .  S
Zr825       O849   2.434       .  S
Zr825       O851   2.345       .  S
Zr825       O829   2.386       .  S
Zr825       O832   2.375       .  S
Zr826       O852   2.435       .  S
Zr826       O853   2.435       .  S
Zr826       O828   2.436       .  S
Zr826       O829   2.424       .  S
Zr826       O830   2.418       .  S
O827        H864   0.990       .  S
O828        H859   0.990       .  S
O828        H873   0.990       .  S
O830        H856   0.966       .  S
O831       Zr841   2.343       .  S
O832       Zr841   2.361   1_545  S
O832        H857   0.965       .  S
C833       C2671   1.475       .  S
C834       C2710   1.486       .  S
C835       C3732   1.476       .  S
O836        H872   0.989       .  S
O837        C839   1.270       .  A
O838        C839   1.301       .  A
C839       C2696   1.496       .  S
O840       Zr841   2.439       .  S
O840        H869   0.990       .  S
Zr841       O844   2.438       .  S
Zr841       O845   2.439       .  S
Zr841       O846   2.489       .  S
O842        C847   1.275       .  A
O843        H860   0.990       .  S
O843        H875   0.989       .  S
O844        H861   0.990       .  S
O845        H865   0.990       .  S
O845        H874   0.990       .  S
O846        C847   1.296       .  A
C847       C2724   1.477       .  S
O848        H867   0.990       .  S
O848        H871   0.990       .  S
O849        H863   0.990       .  S
O849        H870   0.989       .  S
O850        C854   1.303       .  A
O851        C854   1.269       .  A
O852        H862   0.990       .  S
O853        H866   0.990       .  S
C854       C2682   1.484       .  S
Zr877       O878   2.436   1_554  S
Zr877       O879   2.377       .  S
Zr877       O880   2.464   1_554  S
Zr877       O883   2.461       .  S
Zr877       O885   2.388       .  S
Zr877       O886   2.382       .  S
Zr877       O887   2.398   1_554  S
Zr877       O888   2.400   1_554  S
O878        H934   0.990       .  S
O878        H942   0.990       .  S
O879        C899   1.275       .  A
O880        C901   1.290       .  A
O881       Zr891   2.372       .  S
O881        C900   1.273       .  A
O882       Zr890   2.354       .  S
O882        C901   1.269       .  A
O883        C900   1.289       .  A
O884       Zr892   2.414       .  S
O884        C899   1.282       .  A
O885       Zr890   2.367   1_554  S
O885       Zr892   2.374       .  S
O886       Zr891   2.360       .  S
O886       Zr892   2.358       .  S
O886        H921   0.965       .  S
O887       Zr890   2.389       .  S
O887       Zr907   2.391       .  S
O887        H924   0.966       .  S
O888       Zr891   2.382   1_556  S
O888       Zr907   2.407       .  S
Zr889       O914   2.434   1_556  S
Zr889       O908   2.356       .  S
Zr889       O916   2.468   1_556  S
Zr889       O904   2.457       .  S
Zr889       O895   2.391   1_556  S
Zr889       O896   2.396       .  S
Zr889       O897   2.373       .  S
Zr889       O898   2.381       .  S
Zr890       O909   2.441       .  S
Zr890       O902   2.436       .  S
Zr890       O903   2.358       .  S
Zr890       O896   2.379       .  S
Zr890       O897   2.358       .  S
Zr891       O893   2.434       .  S
Zr891       O915   2.438       .  S
Zr891       O917   2.352       .  S
Zr891       O895   2.389       .  S
Zr891       O898   2.368   1_554  S
Zr892       O918   2.435       .  S
Zr892       O919   2.435       .  S
Zr892       O894   2.437       .  S
Zr892       O895   2.396       .  S
Zr892       O896   2.385   1_554  S
O893        H930   0.990       .  S
O894        H925   0.990       .  S
O894        H939   0.990       .  S
O896        H922   0.966       .  S
O897       Zr907   2.362       .  S
O898       Zr907   2.367       .  S
O898        H923   0.965       .  S
C899       C2626   1.444       .  S
C900       C2654   1.462       .  S
C901       C2640   1.456       .  S
O902        H938   0.990       .  S
O903        C905   1.273       .  A
O904        C905   1.289       .  A
C905       C2615   1.479       .  S
O906       Zr907   2.439       .  S
O906        H935   0.990       .  S
Zr907       O910   2.437       .  S
Zr907       O911   2.442       .  S
Zr907       O912   2.440       .  S
O908        C913   1.273       .  A
O909        H926   0.990       .  S
O909        H941   0.990       .  S
O910        H927   0.990       .  S
O911        H931   0.990       .  S
O911        H940   0.989       .  S
O912        C913   1.285       .  A
C913       C3595   1.448       .  S
O914        H933   0.990       .  S
O914        H937   0.990       .  S
O915        H929   0.990       .  S
O915        H936   0.990       .  S
O916        C920   1.292       .  A
O917        C920   1.270       .  A
O918        H928   0.990       .  S
O919        H932   0.990       .  S
C920       C2601   1.461       .  S
C943       C2573   1.487       .  S
C943        C944   1.413       .  A
C943        C948   1.395       .  A
C944        C945   1.422       .  A
C944        H949   1.082       .  S
C945       C2584   1.522   1_556  S
C945        C946   1.414       .  A
C946        C947   1.412       .  A
C946        H950   1.080       .  S
C947       C2556   1.496       .  S
C947        C948   1.399       .  A
C948        H951   1.084       .  S
C952       C2542   1.501       .  S
C952        C953   1.413       .  A
C952        C957   1.402       .  A
C953        C954   1.408       .  A
C953        H958   1.081       .  S
C954       C2528   1.483       .  S
C954        C955   1.389       .  A
C955        C956   1.397       .  A
C955        H959   1.080       .  S
C956       C2514   1.488       .  S
C956        C957   1.409       .  A
C957        H960   1.079       .  S
C961       C2517   1.534       .  S
C961       C2570   1.608       .  S
C961       C3301   1.570       .  S
C961       C3368   1.589       .  S
C962       C2472   1.525       .  S
C962        C963   1.427       .  A
C962        C967   1.418       .  A
C963        C964   1.421       .  A
C963        H968   1.083       .  S
C964       C2486   1.500       .  S
C964        C965   1.395       .  A
C965        C966   1.393       .  A
C965        H969   1.081       .  S
C966       C2500   1.502       .  S
C966        C967   1.415       .  A
C967        H970   1.078       .  S
C971       C2458   1.601       .  S
C971       C2475   1.604       .  S
C971       C2559   1.571       .  S
C971       C2643   1.567       .  S
C972       C2503   1.583       .  S
C972       C2545   1.574       .  S
C972       C3438   1.566       .  S
C972       C4043   1.562       .  S
C973       C2444   1.582       .  S
C973       C2489   1.590       .  S
C973       C2979   1.574       .  S
C973       C3189   1.596       .  S
C974       C2419   1.554       .  S
C974       C2433   1.596       .  S
C974       C2531   1.567       .  S
C974       C3245   1.585       .  S
C975       C2430   1.505       .  S
C975        C976   1.411       .  A
C975        C980   1.413       .  A
C976        C977   1.411       .  A
C976        H981   1.074       .  S
C977       C2405   1.500       .  S
C977        C978   1.402       .  A
C978        C979   1.400       .  A
C978        H982   1.084       .  S
C979       C2447   1.487       .  S
C979        C980   1.411       .  A
C980        H983   1.083       .  S
C984       C2402   1.571       .  S
C984       C2587   1.588       .  S
C984       C3564   1.560       .  S
C984       C3970   1.583       .  S
C985       C2388   1.508       .  S
C985        C986   1.416       .  A
C985        C990   1.408       .  A
C986        C987   1.420       .  A
C986        H991   1.082       .  S
C987       C2377   1.500       .  S
C987        C988   1.403       .  A
C988        C989   1.399       .  A
C988        H992   1.083       .  S
C989       C2360   1.482       .  S
C989        C990   1.399       .  A
C990        H993   1.083       .  S
C994       C2318   1.509       .  S
C994        C995   1.413       .  A
C994        C999   1.418       .  A
C995        C996   1.413       .  A
C995       H1000   1.076       .  S
C996       C2346   1.501       .  S
C996        C997   1.403       .  A
C997        C998   1.393       .  A
C997       H1001   1.084       .  S
C998       C2332   1.487       .  S
C998        C999   1.409       .  A
C999       H1002   1.083       .  S
C1003      C2335   1.596       .  S
C1003      C2391   1.592       .  S
C1003      C3102   1.583       .  S
C1003      C4057   1.554       .  S
C1004      C2279   1.503       .  S
C1004      C1005   1.395       .  A
C1004      C1009   1.412       .  A
C1005      C1006   1.396       .  A
C1005      H1010   1.072       .  S
C1006      C2304   1.521       .  S
C1006      C1007   1.427       .  A
C1007      C1008   1.424       .  A
C1007      H1011   1.080       .  S
C1008      C2290   1.523   1_554  S
C1008      C1009   1.414       .  A
C1009      H1012   1.080       .  S
C1013      C2307   1.609       .  S
C1013      C2363   1.582       .  S
C1013      C2629   1.572       .  S
C1013      C3956   1.612       .  S
C1014      C2276   1.577       .  S
C1014      C2321   1.590       .  S
C1014      C3315   1.574       .  S
C1014      C3511   1.571       .  S
C1015      C2234   1.510       .  S
C1015      C1016   1.418       .  A
C1015      C1020   1.412       .  A
C1016      C1017   1.423       .  A
C1016      H1021   1.082       .  S
C1017      C2262   1.521       .  S
C1017      C1018   1.410       .  A
C1018      C1019   1.410       .  A
C1018      H1022   1.081       .  S
C1019      C2248   1.515       .  S
C1019      C1020   1.415       .  A
C1020      H1023   1.083       .  S
C1024      C2220   1.591       .  S
C1024      C2265   1.580       .  S
C1024      C2293   1.600       .  S
C1024      C3382   1.580       .  S
C1025      C2237   1.614       .  S
C1025      C2349   1.575       .  S
C1025      C2699   1.566       .  S
C1025      C2951   1.572       .  S
C1026      C2251   1.584       .  S
C1026      C2374   1.581       .  S
C1026      C3018   1.566       .  S
C1026      C3231   1.583       .  S
Zr1027     O1028   2.433       .  S
Zr1027     O1029   2.381       .  S
Zr1027     O1030   2.543       .  S
Zr1027     O1033   2.529       .  S
Zr1027     O1035   2.370       .  S
Zr1027     O1036   2.383       .  S
Zr1027     O1037   2.422       .  S
Zr1027     O1038   2.423       .  S
O1028      H1084   0.990       .  S
O1028      H1092   0.990       .  S
O1029      C1049   1.275       .  A
O1030      C1051   1.306       .  A
O1031     Zr1041   2.371       .  S
O1031      C1050   1.273       .  A
O1032     Zr1040   2.348       .  S
O1032      C1051   1.270       .  A
O1033      C1050   1.304       .  A
O1034     Zr1042   2.545       .  S
O1034      C1049   1.308       .  A
O1035     Zr1040   2.369       .  S
O1035     Zr1042   2.340       .  S
O1036     Zr1041   2.379       .  S
O1036     Zr1042   2.346       .  S
O1036      H1071   0.965       .  S
O1037     Zr1040   2.396       .  S
O1037     Zr1057   2.418       .  S
O1037      H1074   0.965       .  S
O1038     Zr1041   2.395       .  S
O1038     Zr1057   2.430       .  S
Zr1039     O1064   2.433       .  S
Zr1039     O1058   2.387       .  S
Zr1039     O1066   2.538       .  S
Zr1039     O1054   2.553       .  S
Zr1039     O1045   2.436       .  S
Zr1039     O1046   2.437       .  S
Zr1039     O1047   2.360       .  S
Zr1039     O1048   2.382       .  S
Zr1040     O1059   2.436       .  S
Zr1040     O1052   2.436       .  S
Zr1040     O1053   2.364       .  S
Zr1040     O1046   2.385       .  S
Zr1040     O1047   2.356       .  S
Zr1041     O1043   2.432       .  S
Zr1041     O1065   2.436       .  S
Zr1041     O1067   2.384       .  S
Zr1041     O1045   2.382       .  S
Zr1041     O1048   2.376       .  S
Zr1042     O1068   2.435       .  S
Zr1042     O1069   2.435       .  S
Zr1042     O1044   2.436       .  S
Zr1042     O1045   2.442       .  S
Zr1042     O1046   2.444       .  S
O1043      H1080   0.990       .  S
O1044      H1075   0.990       .  S
O1044      H1089   0.990       .  S
O1046      H1072   0.966       .  S
O1047     Zr1057   2.345       .  S
O1048     Zr1057   2.349       .  S
O1048      H1073   0.964       .  S
C1049      C2181   1.510       .  S
C1050      C2192   1.493       .  S
C1051      C2206   1.492       .  S
O1052      H1088   0.989       .  S
O1053      C1055   1.272       .  A
O1054      C1055   1.308       .  A
C1055      C3637   1.512       .  S
O1056     Zr1057   2.438       .  S
O1056      H1085   0.990       .  S
Zr1057     O1060   2.437       .  S
Zr1057     O1061   2.439       .  S
Zr1057     O1062   2.513       .  S
O1058      C1063   1.277       .  A
O1059      H1076   0.990       .  S
O1059      H1091   0.988       .  S
O1060      H1077   0.990       .  S
O1061      H1081   0.990       .  S
O1061      H1090   0.990       .  S
O1062      C1063   1.300       .  A
C1063      C2223   1.491       .  S
O1064      H1083   0.990       .  S
O1064      H1087   0.990       .  S
O1065      H1079   0.990       .  S
O1065      H1086   0.990       .  S
O1066      C1070   1.305       .  A
O1067      C1070   1.276       .  A
O1068      H1078   0.990       .  S
O1069      H1082   0.990       .  S
C1070      C2461   1.514       .  S
Zr1093     O1094   2.434   1_545  S
Zr1093     O1095   2.371   1_655  S
Zr1093     O1096   2.468       .  S
Zr1093     O1099   2.470   1_645  S
Zr1093     O1101   2.370       .  S
Zr1093     O1102   2.379   1_655  S
Zr1093     O1103   2.408       .  S
Zr1093     O1104   2.405   1_545  S
O1094      H1150   0.990   1_565  S
O1094      H1158   0.990   1_565  S
O1095      C1115   1.274       .  A
O1096      C1117   1.292       .  A
O1097     Zr1107   2.365       .  S
O1097      C1116   1.273       .  A
O1098     Zr1106   2.376       .  S
O1098      C1117   1.274       .  A
O1099      C1116   1.291       .  A
O1100     Zr1108   2.480       .  S
O1100      C1115   1.295       .  A
O1101     Zr1106   2.365       .  S
O1101     Zr1108   2.346   1_655  S
O1102     Zr1107   2.367   1_545  S
O1102     Zr1108   2.351       .  S
O1102      H1137   0.965       .  S
O1103     Zr1106   2.401       .  S
O1103     Zr1123   2.413   1_545  S
O1103      H1140   0.966       .  S
O1104     Zr1107   2.382   1_655  S
O1104     Zr1123   2.409       .  S
Zr1105     O1130   2.434   1_665  S
Zr1105     O1124   2.379       .  S
Zr1105     O1132   2.469   1_655  S
Zr1105     O1120   2.479   1_565  S
Zr1105     O1111   2.403   1_665  S
Zr1105     O1112   2.410   1_565  S
Zr1105     O1113   2.359   1_565  S
Zr1105     O1114   2.380       .  S
Zr1106     O1125   2.438       .  S
Zr1106     O1118   2.436       .  S
Zr1106     O1119   2.389       .  S
Zr1106     O1112   2.392       .  S
Zr1106     O1113   2.355       .  S
Zr1107     O1109   2.435       .  S
Zr1107     O1131   2.437       .  S
Zr1107     O1133   2.359       .  S
Zr1107     O1111   2.386   1_565  S
Zr1107     O1114   2.367   1_455  S
Zr1108     O1134   2.435       .  S
Zr1108     O1135   2.435       .  S
Zr1108     O1110   2.435       .  S
Zr1108     O1111   2.409       .  S
Zr1108     O1112   2.419   1_455  S
O1109      H1146   0.990       .  S
O1110      H1141   0.990       .  S
O1110      H1155   0.990       .  S
O1112      H1138   0.966       .  S
O1113     Zr1123   2.344   1_545  S
O1114     Zr1123   2.366       .  S
O1114      H1139   0.965       .  S
C1115      C2125   1.491       .  S
C1116      C2738   1.464       .  S
C1117      C2164   1.457       .  S
O1118      H1154   0.990       .  S
O1119      C1121   1.277       .  A
O1120      C1121   1.295       .  A
C1121      C2136   1.482       .  S
O1122     Zr1123   2.439       .  S
O1122      H1151   0.990       .  S
Zr1123     O1126   2.437       .  S
Zr1123     O1127   2.441       .  S
Zr1123     O1128   2.467       .  S
O1124      C1129   1.276       .  A
O1125      H1142   0.990       .  S
O1125      H1157   0.989       .  S
O1126      H1143   0.990       .  S
O1127      H1147   0.990       .  S
O1127      H1156   0.989       .  S
O1128      C1129   1.292       .  A
C1129      C3665   1.476       .  S
O1130      H1149   0.990       .  S
O1130      H1153   0.990       .  S
O1131      H1145   0.990       .  S
O1131      H1152   0.990       .  S
O1132      C1136   1.292       .  A
O1133      C1136   1.272       .  A
O1134      H1144   0.990       .  S
O1135      H1148   0.990       .  S
C1136      C2150   1.465       .  S
C1159      C2080   1.491       .  S
C1159      C1160   1.400       .  A
C1159      C1164   1.421       .  A
C1160      C1161   1.388       .  A
C1160      H1165   1.083       .  S
C1161      C2111   1.448   1_545  S
C1161      C1162   1.381       .  A
C1162      C1163   1.387       .  A
C1162      H1166   1.081       .  S
C1163      C2094   1.490       .  S
C1163      C1164   1.415       .  A
C1164      H1167   1.081       .  S
C1168      C2066   1.523       .  S
C1168      C1169   1.413       .  A
C1168      C1173   1.419       .  A
C1169      C1170   1.412       .  A
C1169      H1174   1.080       .  S
C1170      C2052   1.505       .  S
C1170      C1171   1.408       .  A
C1171      C1172   1.406       .  A
C1171      H1175   1.082       .  S
C1172      C2038   1.515       .  S
C1172      C1173   1.418       .  A
C1173      H1176   1.081       .  S
C1177      C2024   1.521   1_545  S
C1177      C1178   1.404       .  A
C1177      C1182   1.423       .  A
C1178      C1179   1.400       .  A
C1178      H1183   1.083       .  S
C1179      C2013   1.500       .  S
C1179      C1180   1.406       .  A
C1180      C1181   1.415       .  A
C1180      H1184   1.081       .  S
C1181      C1996   1.527       .  S
C1181      C1182   1.432       .  A
C1182      H1185   1.079       .  S
C1186      C1957   1.517       .  S
C1186      C1187   1.412       .  A
C1186      C1191   1.418       .  A
C1187      C1188   1.406       .  A
C1187      H1192   1.083       .  S
C1188      C1982   1.488       .  S
C1188      C1189   1.403       .  A
C1189      C1190   1.410       .  A
C1189      H1193   1.082       .  S
C1190      C1968   1.520       .  S
C1190      C1191   1.419       .  A
C1191      H1194   1.077       .  S
C1195      C1954   1.576       .  S
C1195      C1999   1.585       .  S
C1195      C2685   1.582       .  S
C1195      C3945   1.590       .  S
C1196      C2010   1.566       .  S
C1196      C2041   1.578       .  S
C1196      C3158   1.587       .  S
C1196      C3424   1.566       .  S
C1197      C1971   1.580       .  S
C1197      C2069   1.587       .  S
C1197      C2195   1.593       .  S
C1197      C4071   1.573       .  S
C1198      C2027   1.596       .  S
C1198      C2108   1.561       .  S
C1198      C3091   1.564       .  S
C1198      C3399   1.549       .  S
C1199      C1943   1.570       .  S
C1199      C1985   1.598       .  S
C1199      C2097   1.552       .  S
C1199      C2139   1.596       .  S
C1200      C2055   1.579       .  S
C1200      C2083   1.565       .  S
C1200      C2612   1.553       .  S
C1200      C2937   1.574       .  S
C1201      C1926   1.486       .  S
C1201      C1202   1.404       .  A
C1201      C1206   1.401       .  A
C1202      C1203   1.411       .  A
C1202      H1207   1.083       .  S
C1203      C1915   1.524       .  S
C1203      C1204   1.422       .  A
C1204      C1205   1.422       .  A
C1204      H1208   1.074       .  S
C1205      C1898   1.513   1_455  S
C1205      C1206   1.409       .  A
C1206      H1209   1.083       .  S
C1210      C1884   1.597       .  S
C1210      C1901   1.593       .  S
C1210      C2209   1.580       .  S
C1210      C3119   1.592       .  S
C1211      C1845   1.507       .  S
C1211      C1212   1.402       .  A
C1211      C1216   1.409       .  A
C1212      C1213   1.404       .  A
C1212      H1217   1.082       .  S
C1213      C1873   1.510       .  S
C1213      C1214   1.417       .  A
C1214      C1215   1.424       .  A
C1214      H1218   1.083       .  S
C1215      C1859   1.524       .  S
C1215      C1216   1.420       .  A
C1216      H1219   1.075       .  S
C1220      C1828   1.485       .  S
C1220      C1221   1.406       .  A
C1220      C1225   1.400       .  A
C1221      C1222   1.409       .  A
C1221      H1226   1.084       .  S
C1222      C1887   1.486   1_455  S
C1222      C1223   1.403       .  A
C1223      C1224   1.410       .  A
C1223      H1227   1.082       .  S
C1224      C1814   1.499       .  S
C1224      C1225   1.410       .  A
C1225      H1228   1.083       .  S
C1229      C1772   1.479       .  S
C1229      C1230   1.395       .  A
C1229      C1234   1.398       .  A
C1230      C1231   1.408       .  A
C1230      H1235   1.080       .  S
C1231      C1789   1.500       .  S
C1231      C1232   1.409       .  A
C1232      C1233   1.399       .  A
C1232      H1236   1.080       .  S
C1233      C1803   1.466       .  S
C1233      C1234   1.395       .  A
C1234      H1237   1.084       .  S
C1238      C1761   1.547       .  S
C1238      C1775   1.570       .  S
C1238      C1831   1.585       .  S
C1238      C3480   1.566       .  S
C1239      C1817   1.567       .  S
C1239      C1856   1.596       .  S
C1239      C3046   1.581       .  S
C1239      C3553   1.574       .  S
C1240      C1786   1.554       .  S
C1240      C1929   1.603       .  S
C1240      C3217   1.608       .  S
C1240      C3287   1.573       .  S
C1241      C1800   1.571       .  S
C1241      C1842   1.572       .  S
C1241      C3343   1.557       .  S
C1241      C4015   1.576       .  S
C1242      C1870   1.580       .  S
C1242      C1912   1.592       .  S
C1242      C2153   1.569       .  S
C1242      C3147   1.590       .  S
C1243      C1719   1.468       .  S
C1243      C1244   1.396       .  A
C1243      C1248   1.396       .  A
C1244      C1245   1.405       .  A
C1244      H1249   1.083       .  S
C1245      C1744   1.492       .  S
C1245      C1246   1.409       .  A
C1246      C1247   1.405       .  A
C1246      H1250   1.080       .  S
C1247      C1730   1.475       .  S
C1247      C1248   1.399       .  A
C1248      H1251   1.084       .  S
C1252      C1702   1.571       .  S
C1252      C1716   1.578       .  S
C1252      C3004   1.556       .  S
C1252      C3063   1.569       .  S
C1253      C1688   1.581       .  S
C1253      C1747   1.573       .  S
C1253      C3931   1.548       .  S
C1253      C4001   1.571       .  S
C1254      C1660   1.531       .  S
C1254      C1255   1.408       .  A
C1254      C1259   1.432       .  A
C1255      C1256   1.405       .  A
C1255      H1260   1.079       .  S
C1256      C1691   1.502       .  S
C1256      C1257   1.407       .  A
C1257      C1258   1.409       .  A
C1257      H1261   1.083       .  S
C1258      C1674   1.530       .  S
C1258      C1259   1.434       .  A
C1259      H1262   1.081       .  S
C1263      C1632   1.558       .  S
C1263      C1646   1.581       .  S
C1263      C1663   1.599       .  S
C1263      C2178   1.600       .  S
C1264      C1618   1.491   1_655  S
C1264      C1265   1.408       .  A
C1264      C1269   1.407       .  A
C1265      C1266   1.408       .  A
C1265      H1270   1.084       .  S
C1266      C1705   1.489       .  S
C1266      C1267   1.397       .  A
C1267      C1268   1.403       .  A
C1267      H1271   1.078       .  S
C1268      C1649   1.499       .  S
C1268      C1269   1.415       .  A
C1269      H1272   1.083       .  S
C1273      C1590   1.496       .  S
C1273      C1274   1.413       .  A
C1273      C1278   1.408       .  A
C1274      C1275   1.413       .  A
C1274      H1279   1.082       .  S
C1275      C1607   1.497   1_655  S
C1275      C1276   1.406       .  A
C1276      C1277   1.395       .  A
C1276      H1280   1.084       .  S
C1277      C1576   1.476       .  S
C1277      C1278   1.398       .  A
C1278      H1281   1.084       .  S
C1282      C1604   1.583       .  S
C1282      C1621   1.612       .  S
C1282      C3455   1.578       .  S
C1282      C3539   1.589       .  S
C1283      C1593   1.576       .  S
C1283      C1733   1.571       .  S
C1283      C2657   1.556       .  S
C1283      C3259   1.570       .  S
C1284      C1579   1.576       .  S
C1284      C1677   1.603       .  S
C1284      C2167   1.544       .  S
C1284      C2713   1.595       .  S
Zr1285     O1286   2.434   1_655  S
Zr1285     O1287   2.370       .  S
Zr1285     O1288   2.446   1_655  S
Zr1285     O1291   2.442       .  S
Zr1285     O1293   2.377       .  S
Zr1285     O1294   2.388       .  S
Zr1285     O1295   2.397   1_655  S
Zr1285     O1296   2.392       .  S
O1286      H1342   0.990   1_455  S
O1286      H1350   0.990       .  S
O1287      C1307   1.274       .  A
O1288      C1309   1.286       .  A
O1289     Zr1299   2.388       .  S
O1289      C1308   1.270       .  A
O1290     Zr1298   2.385       .  S
O1290      C1309   1.272       .  A
O1291      C1308   1.286       .  A
O1292     Zr1300   2.441       .  S
O1292      C1307   1.287       .  A
O1293     Zr1298   2.355   1_655  S
O1293     Zr1300   2.357       .  S
O1294     Zr1299   2.364       .  S
O1294     Zr1300   2.368       .  S
O1294      H1329   0.965       .  S
O1295     Zr1298   2.403       .  S
O1295     Zr1315   2.408       .  S
O1295      H1332   0.966       .  S
O1296     Zr1299   2.383       .  S
O1296     Zr1315   2.389   1_655  S
Zr1297     O1322   2.434       .  S
Zr1297     O1316   2.365   1_655  S
Zr1297     O1324   2.448       .  S
Zr1297     O1312   2.480   1_655  S
Zr1297     O1303   2.398       .  S
Zr1297     O1304   2.404       .  S
Zr1297     O1305   2.352   1_655  S
Zr1297     O1306   2.388       .  S
Zr1298     O1317   2.431       .  S
Zr1298     O1310   2.437       .  S
Zr1298     O1311   2.366       .  S
Zr1298     O1304   2.385   1_455  S
Zr1298     O1305   2.356       .  S
Zr1299     O1301   2.440       .  S
Zr1299     O1323   2.438       .  S
Zr1299     O1325   2.347       .  S
Zr1299     O1303   2.387       .  S
Zr1299     O1306   2.371       .  S
Zr1300     O1326   2.435       .  S
Zr1300     O1327   2.435       .  S
Zr1300     O1302   2.436       .  S
Zr1300     O1303   2.398       .  S
Zr1300     O1304   2.407       .  S
O1301      H1338   0.990       .  S
O1302      H1333   0.990       .  S
O1302      H1347   0.990       .  S
O1304      H1330   0.966       .  S
O1305     Zr1315   2.341       .  S
O1306     Zr1315   2.367   1_655  S
O1306      H1331   0.966       .  S
C1307      C3581   1.452       .  S
C1308      C1940   1.480       .  S
C1309      C1565   1.451       .  S
O1310      H1346   0.990       .  S
O1311      C1313   1.273       .  A
O1312      C1313   1.294       .  A
C1313      C2416   1.472       .  S
O1314     Zr1315   2.438       .  S
O1314      H1343   0.990       .  S
Zr1315     O1318   2.437       .  S
Zr1315     O1319   2.439       .  S
Zr1315     O1320   2.444       .  S
O1316      C1321   1.273       .  A
O1317      H1334   0.989       .  S
O1317      H1349   0.988       .  S
O1318      H1335   0.990       .  S
O1319      H1339   0.990       .  S
O1319      H1348   0.990       .  S
O1320      C1321   1.288       .  A
C1321      C1758   1.454       .  S
O1322      H1341   0.990       .  S
O1322      H1345   0.990       .  S
O1323      H1337   0.990       .  S
O1323      H1344   0.989       .  S
O1324      C1328   1.287       .  A
O1325      C1328   1.268       .  A
O1326      H1336   0.990       .  S
O1327      H1340   0.990       .  S
C1328      C1635   1.448       .  S
C1351      C1548   1.474       .  S
C1351      C1352   1.396   1_655  A
C1351      C1356   1.403   1_655  A
C1352      C1353   1.400       .  A
C1352      H1357   1.085   1_455  S
C1353      C1537   1.470   1_545  S
C1353      C1354   1.400       .  A
C1354      C1355   1.403   1_554  A
C1354      H1358   1.084   1_554  S
C1355      C1520   1.477       .  S
C1355      C1356   1.404   1_556  A
C1356      H1359   1.084   1_455  S
C1360      C1495   1.513       .  S
C1360      C1361   1.413       .  A
C1360      C1365   1.417       .  A
C1361      C1362   1.405       .  A
C1361      H1366   1.084       .  S
C1362      C1509   1.487       .  S
C1362      C1363   1.400       .  A
C1363      C1364   1.408   1_554  A
C1363      H1367   1.082   1_554  S
C1364      C1481   1.516       .  S
C1364      C1365   1.419   1_556  A
C1365      H1368   1.078       .  S
C1369      C1464   1.510       .  S
C1369      C1370   1.418   1_655  A
C1369      C1374   1.413   1_655  A
C1370      C1371   1.410       .  A
C1370      H1375   1.082   1_455  S
C1371      C1450   1.512       .  S
C1371      C1372   1.409       .  A
C1372      C1373   1.401       .  A
C1372      H1376   1.082       .  S
C1373      C1439   1.493       .  S
C1373      C1374   1.411       .  A
C1374      H1377   1.083       .  S
C1378      C1394   1.500       .  S
C1378      C1379   1.408       .  A
C1378      C1383   1.408       .  A
C1379      C1380   1.400       .  A
C1379      H1384   1.082       .  S
C1380      C1422   1.487       .  S
C1380      C1381   1.402       .  A
C1381      C1382   1.407       .  A
C1381      H1385   1.084       .  S
C1382      C1408   1.496   1_545  S
C1382      C1383   1.410       .  A
C1383      H1386   1.078       .  S
C1387      C1397   1.604       .  S
C1387      C1453   1.598       .  S
C1387      C2122   1.582       .  S
C1387      C3413   1.560       .  S
C1388      C1436   1.597       .  S
C1388      C1492   1.597       .  S
C1388      C3203   1.573       .  S
C1388      C3494   1.590       .  S
C1389      C1411   1.561       .  S
C1389      C1534   1.572       .  S
C1389      C2990   1.559       .  S
C1389      C3273   1.564       .  S
C1390      C1478   1.608       .  S
C1390      C1523   1.577       .  S
C1390      C1562   1.557       .  S
C1390      C3133   1.608       .  S
C1391      C1467   1.581       .  S
C1391      C1551   1.570       .  S
C1391      C2598   1.571       .  S
C1391      C2668   1.563       .  S
C1392      C1425   1.568       .  S
C1392      C1506   1.582       .  S
C1392      C2920   1.575       .  S
C1392      C3914   1.572       .  S
C1393      C1394   1.401       .  A
C1393      C1398   1.416       .  A
C1393      H1400   1.084       .  S
C1394      C1395   1.404       .  A
C1395      C1396   1.395       .  A
C1395      N1402   1.434       .  S
C1396      C1397   1.418       .  A
C1396      H1401   1.061       .  S
C1397      C1398   1.441       .  A
C1398      N1399   1.430       .  S
N1399      H1403   1.046       .  S
N1399      H1404   1.046       .  S
N1402      H1405   1.046       .  S
N1402      H1406   1.046       .  S
C1407      C1408   1.408       .  A
C1407      C1412   1.409       .  A
C1407      H1414   1.084       .  S
C1408      C1409   1.416       .  A
C1409      C1410   1.393       .  A
C1409      N1416   1.433   1_565  S
C1410      C1411   1.415       .  A
C1410      H1415   1.082       .  S
C1411      C1412   1.422       .  A
C1412      N1413   1.431       .  S
N1413      H1417   1.045       .  S
N1413      H1418   1.045       .  S
N1416      H1419   1.045       .  S
N1416      H1420   1.042       .  S
C1421      C1422   1.394       .  A
C1421      C1426   1.402       .  A
C1421      H1428   1.084       .  S
C1422      C1423   1.398       .  A
C1423      C1424   1.398       .  A
C1423      N1430   1.425       .  S
C1424      C1425   1.409       .  A
C1424      H1429   1.072       .  S
C1425      C1426   1.445       .  A
C1426      N1427   1.438       .  S
N1427      H1431   1.046       .  S
N1427      H1432   1.032       .  S
N1430      H1433   1.046       .  S
N1430      H1434   1.046       .  S
C1435      C1436   1.421       .  A
C1435      C1440   1.396       .  A
C1435      H1442   1.077       .  S
C1436      C1437   1.439       .  A
C1437      C1438   1.415       .  A
C1437      N1444   1.433       .  S
C1438      C1439   1.403       .  A
C1438      H1443   1.084       .  S
C1439      C1440   1.407       .  A
C1440      N1441   1.434       .  S
N1441      H1445   1.045       .  S
N1441      H1446   1.044       .  S
N1444      H1447   1.040       .  S
N1444      H1448   1.044       .  S
C1449      C1450   1.410       .  A
C1449      C1454   1.421       .  A
C1449      H1456   1.082       .  S
C1450      C1451   1.414       .  A
C1451      C1452   1.397       .  A
C1451      N1458   1.438       .  S
C1452      C1453   1.412       .  A
C1452      H1457   1.078       .  S
C1453      C1454   1.433       .  A
C1454      N1455   1.431       .  S
N1455      H1459   1.045       .  S
N1455      H1460   1.045       .  S
N1458      H1461   1.045       .  S
N1458      H1462   1.046       .  S
C1463      C1464   1.399       .  A
C1463      C1468   1.397       .  A
C1463      H1470   1.083       .  S
C1464      C1465   1.426       .  A
C1465      C1466   1.421       .  A
C1465      N1472   1.439       .  S
C1466      C1467   1.416       .  A
C1466      H1471   1.081       .  S
C1467      C1468   1.425       .  A
C1468      N1469   1.429       .  S
N1469      H1473   1.046       .  S
N1469      H1474   1.046       .  S
N1472      H1475   1.042       .  S
N1472      H1476   1.046       .  S
C1477      C1478   1.413       .  A
C1477      C1482   1.408       .  A
C1477      H1484   1.055       .  S
C1478      C1479   1.452       .  A
C1479      C1480   1.407       .  A
C1479      N1486   1.433       .  S
C1480      C1481   1.400       .  A
C1480      H1485   1.082       .  S
C1481      C1482   1.415       .  A
C1482      N1483   1.440       .  S
N1483      H1487   1.045       .  S
N1483      H1488   1.046   1_556  S
N1486      H1489   1.044       .  S
N1486      H1490   1.040       .  S
C1491      C1492   1.421       .  A
C1491      C1496   1.408       .  A
C1491      H1498   1.084       .  S
C1492      C1493   1.438       .  A
C1493      C1494   1.416       .  A
C1493      N1500   1.436       .  S
C1494      C1495   1.404       .  A
C1494      H1499   1.083       .  S
C1495      C1496   1.411       .  A
C1496      N1497   1.432       .  S
N1497      H1501   1.046       .  S
N1497      H1502   1.046       .  S
N1500      H1503   1.042       .  S
N1500      H1504   1.046       .  S
C1505      C1506   1.417       .  A
C1505      C1510   1.413       .  A
C1505      H1512   1.078       .  S
C1506      C1507   1.432       .  A
C1507      C1508   1.399       .  A
C1507      N1514   1.433       .  S
C1508      C1509   1.395       .  A
C1508      H1513   1.085       .  S
C1509      C1510   1.413       .  A
C1510      N1511   1.437       .  S
N1511      H1515   1.046       .  S
N1511      H1516   1.044       .  S
N1514      H1517   1.046       .  S
N1514      H1518   1.046       .  S
C1519      C1520   1.390       .  A
C1519      C1524   1.399       .  A
C1519      H1526   1.077       .  S
C1520      C1521   1.404       .  A
C1521      C1522   1.392       .  A
C1521      N1528   1.432   1_556  S
C1522      C1523   1.423       .  A
C1522      H1527   1.079       .  S
C1523      C1524   1.439       .  A
C1524      N1525   1.429       .  S
N1525      H1529   1.042       .  S
N1525      H1530   1.042       .  S
N1528      H1531   1.046       .  S
N1528      H1532   1.043       .  S
C1533      C1534   1.423       .  A
C1533      C1538   1.403       .  A
C1533      H1540   1.081       .  S
C1534      C1535   1.435       .  A
C1535      C1536   1.394       .  A
C1535      N1542   1.433       .  S
C1536      C1537   1.391       .  A
C1536      H1541   1.085   1_565  S
C1537      C1538   1.405       .  A
C1538      N1539   1.437       .  S
N1539      H1543   1.043       .  S
N1539      H1544   1.044       .  S
N1542      H1545   1.046   1_565  S
N1542      H1546   1.046   1_565  S
C1547      C1548   1.394       .  A
C1547      C1552   1.407       .  A
C1547      H1554   1.084       .  S
C1548      C1549   1.402       .  A
C1549      C1550   1.398       .  A
C1549      N1556   1.439   1_655  S
C1550      C1551   1.420       .  A
C1550      H1555   1.077       .  S
C1551      C1552   1.433       .  A
C1552      N1553   1.430       .  S
N1553      H1557   1.044       .  S
N1553      H1558   1.046       .  S
N1556      H1559   1.046       .  S
N1556      H1560   1.045       .  S
C1561      C1562   1.421       .  A
C1561      C1566   1.401       .  A
C1561      H1568   1.080       .  S
C1562      C1563   1.441       .  A
C1563      C1564   1.386       .  A
C1563      N1570   1.444       .  S
C1564      C1565   1.390       .  A
C1564      H1569   1.081       .  S
C1565      C1566   1.407       .  A
C1566      N1567   1.439   1_455  S
N1567      H1571   1.046       .  S
N1567      H1572   1.044       .  S
N1570      H1573   1.037       .  S
N1570      H1574   1.046       .  S
C1575      C1576   1.398       .  A
C1575      C1580   1.409       .  A
C1575      H1582   1.083       .  S
C1576      C1577   1.409       .  A
C1577      C1578   1.394       .  A
C1577      N1584   1.441       .  S
C1578      C1579   1.422       .  A
C1578      H1583   1.081       .  S
C1579      C1580   1.425       .  A
C1580      N1581   1.427       .  S
N1581      H1585   1.045       .  S
N1581      H1586   1.046       .  S
N1584      H1587   1.042       .  S
N1584      H1588   1.046       .  S
C1589      C1590   1.402       .  A
C1589      C1594   1.395       .  A
C1589      H1596   1.083       .  S
C1590      C1591   1.418       .  A
C1591      C1592   1.411       .  A
C1591      N1598   1.437       .  S
C1592      C1593   1.416       .  A
C1592      H1597   1.079       .  S
C1593      C1594   1.424       .  A
C1594      N1595   1.433       .  S
N1595      H1599   1.046       .  S
N1595      H1600   1.046       .  S
N1598      H1601   1.043       .  S
N1598      H1602   1.045       .  S
C1603      C1604   1.421       .  A
C1603      C1608   1.403       .  A
C1603      H1610   1.077       .  S
C1604      C1605   1.443       .  A
C1605      C1606   1.407       .  A
C1605      N1612   1.441       .  S
C1606      C1607   1.402       .  A
C1606      H1611   1.083   1_455  S
C1607      C1608   1.409       .  A
C1608      N1609   1.440       .  S
N1609      H1613   1.045       .  S
N1609      H1614   1.046       .  S
N1612      H1615   1.038       .  S
N1612      H1616   1.046   1_455  S
C1617      C1618   1.399       .  A
C1617      C1622   1.416       .  A
C1617      H1624   1.084       .  S
C1618      C1619   1.406   1_455  A
C1619      C1620   1.399   1_655  A
C1619      N1626   1.441       .  S
C1620      C1621   1.427       .  A
C1620      H1625   1.076       .  S
C1621      C1622   1.450       .  A
C1622      N1623   1.443       .  S
N1623      H1627   1.046       .  S
N1623      H1628   1.038       .  S
N1626      H1629   1.043       .  S
N1626      H1630   1.046       .  S
C1631      C1632   1.426       .  A
C1631      C1636   1.400       .  A
C1631      H1638   1.075       .  S
C1632      C1633   1.429       .  A
C1633      C1634   1.391       .  A
C1633      N1640   1.435       .  S
C1634      C1635   1.395       .  A
C1634      H1639   1.085       .  S
C1635      C1636   1.398       .  A
C1636      N1637   1.439       .  S
N1637      H1641   1.046       .  S
N1637      H1642   1.046       .  S
N1640      H1643   1.045       .  S
N1640      H1644   1.045       .  S
C1645      C1646   1.415       .  A
C1645      C1650   1.407       .  A
C1645      H1652   1.078       .  S
C1646      C1647   1.430       .  A
C1647      C1648   1.398       .  A
C1647      N1654   1.430       .  S
C1648      C1649   1.398       .  A
C1648      H1653   1.083       .  S
C1649      C1650   1.420       .  A
C1650      N1651   1.438       .  S
N1651      H1655   1.046       .  S
N1651      H1656   1.044       .  S
N1654      H1657   1.046       .  S
N1654      H1658   1.046       .  S
C1659      C1660   1.404       .  A
C1659      C1664   1.419       .  A
C1659      H1666   1.084       .  S
C1660      C1661   1.426       .  A
C1661      C1662   1.407       .  A
C1661      N1668   1.432       .  S
C1662      C1663   1.416       .  A
C1662      H1667   1.084       .  S
C1663      C1664   1.451       .  A
C1664      N1665   1.433       .  S
N1665      H1669   1.036       .  S
N1665      H1670   1.041       .  S
N1668      H1671   1.041       .  S
N1668      H1672   1.045       .  S
C1673      C1674   1.420       .  A
C1673      C1678   1.427       .  A
C1673      H1680   1.083       .  S
C1674      C1675   1.410       .  A
C1675      C1676   1.414       .  A
C1675      N1682   1.438       .  S
C1676      C1677   1.428       .  A
C1676      H1681   1.083       .  S
C1677      C1678   1.423       .  A
C1678      N1679   1.429       .  S
N1679      H1683   1.046       .  S
N1679      H1684   1.046       .  S
N1682      H1685   1.046       .  S
N1682      H1686   1.045       .  S
C1687      C1688   1.416       .  A
C1687      C1692   1.409       .  A
C1687      H1694   1.083       .  S
C1688      C1689   1.437       .  A
C1689      C1690   1.407       .  A
C1689      N1696   1.432       .  S
C1690      C1691   1.399       .  A
C1690      H1695   1.084       .  S
C1691      C1692   1.413       .  A
C1692      N1693   1.436       .  S
N1693      H1697   1.046       .  S
N1693      H1698   1.046       .  S
N1696      H1699   1.046       .  S
N1696      H1700   1.046       .  S
C1701      C1702   1.413       .  A
C1701      C1706   1.397       .  A
C1701      H1708   1.084       .  S
C1702      C1703   1.432       .  A
C1703      C1704   1.405       .  A
C1703      N1710   1.433       .  S
C1704      C1705   1.398       .  A
C1704      H1709   1.084       .  S
C1705      C1706   1.418       .  A
C1706      N1707   1.434       .  S
N1707      H1711   1.042       .  S
N1707      H1712   1.046       .  S
N1710      H1713   1.046       .  S
N1710      H1714   1.046       .  S
C1715      C1716   1.423       .  A
C1715      C1720   1.387       .  A
C1715      H1722   1.077       .  S
C1716      C1717   1.445       .  A
C1717      C1718   1.399       .  A
C1717      N1724   1.439       .  S
C1718      C1719   1.388       .  A
C1718      H1723   1.077       .  S
C1719      C1720   1.398       .  A
C1720      N1721   1.432       .  S
N1721      H1725   1.043       .  S
N1721      H1726   1.045       .  S
N1724      H1727   1.029       .  S
N1724      H1728   1.045       .  S
C1729      C1730   1.400       .  A
C1729      C1734   1.414       .  A
C1729      H1736   1.083       .  S
C1730      C1731   1.408       .  A
C1731      C1732   1.389       .  A
C1731      N1738   1.438       .  S
C1732      C1733   1.417       .  A
C1732      H1737   1.080       .  S
C1733      C1734   1.427       .  A
C1734      N1735   1.434       .  S
N1735      H1739   1.046       .  S
N1735      H1740   1.045       .  S
N1738      H1741   1.042       .  S
N1738      H1742   1.045       .  S
C1743      C1744   1.401       .  A
C1743      C1748   1.408       .  A
C1743      H1750   1.083       .  S
C1744      C1745   1.406       .  A
C1745      C1746   1.400       .  A
C1745      N1752   1.434       .  S
C1746      C1747   1.418       .  A
C1746      H1751   1.077       .  S
C1747      C1748   1.431       .  A
C1748      N1749   1.438       .  S
N1749      H1753   1.045       .  S
N1749      H1754   1.042       .  S
N1752      H1755   1.046       .  S
N1752      H1756   1.046       .  S
C1757      C1758   1.401       .  A
C1757      C1762   1.398       .  A
C1757      H1764   1.083       .  S
C1758      C1759   1.406       .  A
C1759      C1760   1.386       .  A
C1759      N1766   1.441       .  S
C1760      C1761   1.420       .  A
C1760      H1765   1.082       .  S
C1761      C1762   1.420       .  A
C1762      N1763   1.430       .  S
N1763      H1767   1.045       .  S
N1763      H1768   1.046       .  S
N1766      H1769   1.042       .  S
N1766      H1770   1.046       .  S
C1771      C1772   1.395       .  A
C1771      C1776   1.400       .  A
C1771      H1778   1.078       .  S
C1772      C1773   1.409       .  A
C1773      C1774   1.392       .  A
C1773      N1780   1.432       .  S
C1774      C1775   1.416       .  A
C1774      H1779   1.084       .  S
C1775      C1776   1.428       .  A
C1776      N1777   1.430       .  S
N1777      H1781   1.046       .  S
N1777      H1782   1.046       .  S
N1780      H1783   1.046       .  S
N1780      H1784   1.046       .  S
C1785      C1786   1.424       .  A
C1785      C1790   1.404       .  A
C1785      H1792   1.079       .  S
C1786      C1787   1.430       .  A
C1787      C1788   1.397       .  A
C1787      N1794   1.442       .  S
C1788      C1789   1.407       .  A
C1788      H1793   1.080       .  S
C1789      C1790   1.414       .  A
C1790      N1791   1.441       .  S
N1791      H1795   1.046       .  S
N1791      H1796   1.041       .  S
N1794      H1797   1.035       .  S
N1794      H1798   1.046       .  S
C1799      C1800   1.421       .  A
C1799      C1804   1.391       .  A
C1799      H1806   1.079       .  S
C1800      C1801   1.427       .  A
C1801      C1802   1.404       .  A
C1801      N1808   1.431       .  S
C1802      C1803   1.396       .  A
C1802      H1807   1.084       .  S
C1803      C1804   1.406       .  A
C1804      N1805   1.441       .  S
N1805      H1809   1.046       .  S
N1805      H1810   1.042       .  S
N1808      H1811   1.046       .  S
N1808      H1812   1.045       .  S
C1813      C1814   1.404       .  A
C1813      C1818   1.405       .  A
C1813      H1820   1.083       .  S
C1814      C1815   1.412       .  A
C1815      C1816   1.400       .  A
C1815      N1822   1.432       .  S
C1816      C1817   1.416       .  A
C1816      H1821   1.083       .  S
C1817      C1818   1.429       .  A
C1818      N1819   1.432       .  S
N1819      H1823   1.046       .  S
N1819      H1824   1.046       .  S
N1822      H1825   1.046       .  S
N1822      H1826   1.046       .  S
C1827      C1828   1.400       .  A
C1827      C1832   1.413       .  A
C1827      H1834   1.084       .  S
C1828      C1829   1.402       .  A
C1829      C1830   1.406       .  A
C1829      N1836   1.439       .  S
C1830      C1831   1.423       .  A
C1830      H1835   1.076       .  S
C1831      C1832   1.427       .  A
C1832      N1833   1.429       .  S
N1833      H1837   1.046       .  S
N1833      H1838   1.045       .  S
N1836      H1839   1.045       .  S
N1836      H1840   1.046       .  S
C1841      C1842   1.409       .  A
C1841      C1846   1.383       .  A
C1841      H1848   1.081       .  S
C1842      C1843   1.423       .  A
C1843      C1844   1.424       .  A
C1843      N1850   1.430       .  S
C1844      C1845   1.413       .  A
C1844      H1849   1.083       .  S
C1845      C1846   1.418       .  A
C1846      N1847   1.430       .  S
N1847      H1851   1.045       .  S
N1847      H1852   1.041       .  S
N1850      H1853   1.045       .  S
N1850      H1854   1.045       .  S
C1855      C1856   1.420       .  A
C1855      C1860   1.405       .  A
C1855      H1862   1.083       .  S
C1856      C1857   1.437       .  A
C1857      C1858   1.415       .  A
C1857      N1864   1.430       .  S
C1858      C1859   1.410       .  A
C1858      H1863   1.084       .  S
C1859      C1860   1.421       .  A
C1860      N1861   1.433       .  S
N1861      H1865   1.045       .  S
N1861      H1866   1.042       .  S
N1864      H1867   1.044       .  S
N1864      H1868   1.040       .  S
C1869      C1870   1.425       .  A
C1869      C1874   1.411       .  A
C1869      H1876   1.077       .  S
C1870      C1871   1.424       .  A
C1871      C1872   1.407       .  A
C1871      N1878   1.440       .  S
C1872      C1873   1.406       .  A
C1872      H1877   1.074       .  S
C1873      C1874   1.414       .  A
C1874      N1875   1.437       .  S
N1875      H1879   1.045       .  S
N1875      H1880   1.042       .  S
N1878      H1881   1.042       .  S
N1878      H1882   1.045       .  S
C1883      C1884   1.426       .  A
C1883      C1888   1.397       .  A
C1883      H1890   1.075       .  S
C1884      C1885   1.445       .  A
C1885      C1886   1.414       .  A
C1885      N1892   1.437       .  S
C1886      C1887   1.397       .  A
C1886      H1891   1.082       .  S
C1887      C1888   1.405       .  A
C1888      N1889   1.442   1_655  S
N1889      H1893   1.046       .  S
N1889      H1894   1.042       .  S
N1892      H1895   1.029       .  S
N1892      H1896   1.046       .  S
C1897      C1898   1.410       .  A
C1897      C1902   1.412       .  A
C1897      H1904   1.083   1_655  S
C1898      C1899   1.409       .  A
C1899      C1900   1.411       .  A
C1899      N1906   1.431       .  S
C1900      C1901   1.421       .  A
C1900      H1905   1.077       .  S
C1901      C1902   1.423       .  A
C1902      N1903   1.432       .  S
N1903      H1907   1.045       .  S
N1903      H1908   1.046       .  S
N1906      H1909   1.046       .  S
N1906      H1910   1.046       .  S
C1911      C1912   1.421       .  A
C1911      C1916   1.405       .  A
C1911      H1918   1.083       .  S
C1912      C1913   1.430       .  A
C1913      C1914   1.419       .  A
C1913      N1920   1.436       .  S
C1914      C1915   1.413       .  A
C1914      H1919   1.083       .  S
C1915      C1916   1.419       .  A
C1916      N1917   1.432       .  S
N1917      H1921   1.042       .  S
N1917      H1922   1.045       .  S
N1920      H1923   1.044       .  S
N1920      H1924   1.045       .  S
C1925      C1926   1.387       .  A
C1925      C1930   1.395       .  A
C1925      H1932   1.085       .  S
C1926      C1927   1.413       .  A
C1927      C1928   1.414       .  A
C1927      N1934   1.438       .  S
C1928      C1929   1.423       .  A
C1928      H1933   1.083       .  S
C1929      C1930   1.444       .  A
C1930      N1931   1.431       .  S
N1931      H1935   1.046       .  S
N1931      H1936   1.046       .  S
N1934      H1937   1.044       .  S
N1934      H1938   1.046       .  S
C1939      C1940   1.394       .  A
C1939      C1944   1.400       .  A
C1939      H1946   1.079       .  S
C1940      C1941   1.413       .  A
C1941      C1942   1.393       .  A
C1941      N1948   1.431       .  S
C1942      C1943   1.403       .  A
C1942      H1947   1.072       .  S
C1943      C1944   1.443       .  A
C1944      N1945   1.444       .  S
N1945      H1949   1.045       .  S
N1945      H1950   1.043       .  S
N1948      H1951   1.046       .  S
N1948      H1952   1.046       .  S
C1953      C1954   1.417       .  A
C1953      C1958   1.403       .  A
C1953      H1960   1.084       .  S
C1954      C1955   1.429       .  A
C1955      C1956   1.420       .  A
C1955      N1962   1.436       .  S
C1956      C1957   1.412       .  A
C1956      H1961   1.083       .  S
C1957      C1958   1.412       .  A
C1958      N1959   1.432       .  S
N1959      H1963   1.046       .  S
N1959      H1964   1.046       .  S
N1962      H1965   1.044       .  S
N1962      H1966   1.045       .  S
C1967      C1968   1.406       .  A
C1967      C1972   1.411       .  A
C1967      H1974   1.082       .  S
C1968      C1969   1.421       .  A
C1969      C1970   1.412       .  A
C1969      N1976   1.438       .  S
C1970      C1971   1.415       .  A
C1970      H1975   1.083       .  S
C1971      C1972   1.432       .  A
C1972      N1973   1.431       .  S
N1973      H1977   1.046       .  S
N1973      H1978   1.045       .  S
N1976      H1979   1.046       .  S
N1976      H1980   1.046       .  S
C1981      C1982   1.404       .  A
C1981      C1986   1.421       .  A
C1981      H1988   1.083       .  S
C1982      C1983   1.407       .  A
C1983      C1984   1.394       .  A
C1983      N1990   1.442       .  S
C1984      C1985   1.427       .  A
C1984      H1989   1.078       .  S
C1985      C1986   1.435       .  A
C1986      N1987   1.439       .  S
N1987      H1991   1.045       .  S
N1987      H1992   1.042       .  S
N1990      H1993   1.042       .  S
N1990      H1994   1.046       .  S
C1995      C1996   1.416       .  A
C1995      C2000   1.417       .  A
C1995      H2002   1.082       .  S
C1996      C1997   1.412       .  A
C1997      C1998   1.411       .  A
C1997      N2004   1.431       .  S
C1998      C1999   1.422       .  A
C1998      H2003   1.081       .  S
C1999      C2000   1.422       .  A
C2000      N2001   1.430       .  S
N2001      H2005   1.046       .  S
N2001      H2006   1.046       .  S
N2004      H2007   1.046       .  S
N2004      H2008   1.046       .  S
C2009      C2010   1.419       .  A
C2009      C2014   1.412       .  A
C2009      H2016   1.077       .  S
C2010      C2011   1.420       .  A
C2011      C2012   1.400       .  A
C2011      N2018   1.434       .  S
C2012      C2013   1.404       .  A
C2012      H2017   1.082       .  S
C2013      C2014   1.412       .  A
C2014      N2015   1.438       .  S
N2015      H2019   1.046       .  S
N2015      H2020   1.046       .  S
N2018      H2021   1.046       .  S
N2018      H2022   1.045       .  S
C2023      C2024   1.409       .  A
C2023      C2028   1.427       .  A
C2023      H2030   1.083       .  S
C2024      C2025   1.420       .  A
C2025      C2026   1.404       .  A
C2025      N2032   1.439   1_565  S
C2026      C2027   1.412       .  A
C2026      H2031   1.077       .  S
C2027      C2028   1.432       .  A
C2028      N2029   1.436       .  S
N2029      H2033   1.045       .  S
N2029      H2034   1.043       .  S
N2032      H2035   1.046       .  S
N2032      H2036   1.046   1_545  S
C2037      C2038   1.401       .  A
C2037      C2042   1.407       .  A
C2037      H2044   1.083       .  S
C2038      C2039   1.426       .  A
C2039      C2040   1.414       .  A
C2039      N2046   1.436       .  S
C2040      C2041   1.414       .  A
C2040      H2045   1.080       .  S
C2041      C2042   1.434       .  A
C2042      N2043   1.439       .  S
N2043      H2047   1.045       .  S
N2043      H2048   1.043       .  S
N2046      H2049   1.043       .  S
N2046      H2050   1.045       .  S
C2051      C2052   1.402       .  A
C2051      C2056   1.405       .  A
C2051      H2058   1.083       .  S
C2052      C2053   1.415       .  A
C2053      C2054   1.410       .  A
C2053      N2060   1.438       .  S
C2054      C2055   1.416       .  A
C2054      H2059   1.077       .  S
C2055      C2056   1.429       .  A
C2056      N2057   1.432       .  S
N2057      H2061   1.045       .  S
N2057      H2062   1.046       .  S
N2060      H2063   1.045       .  S
N2060      H2064   1.045       .  S
C2065      C2066   1.414       .  A
C2065      C2070   1.418       .  A
C2065      H2072   1.082       .  S
C2066      C2067   1.414       .  A
C2067      C2068   1.406       .  A
C2067      N2074   1.432       .  S
C2068      C2069   1.419       .  A
C2068      H2073   1.083       .  S
C2069      C2070   1.425       .  A
C2070      N2071   1.430       .  S
N2071      H2075   1.046       .  S
N2071      H2076   1.046       .  S
N2074      H2077   1.046       .  S
N2074      H2078   1.046       .  S
C2079      C2080   1.394       .  A
C2079      C2084   1.400       .  A
C2079      H2086   1.073       .  S
C2080      C2081   1.412       .  A
C2081      C2082   1.397       .  A
C2081      N2088   1.433       .  S
C2082      C2083   1.414       .  A
C2082      H2087   1.084       .  S
C2083      C2084   1.434       .  A
C2084      N2085   1.431       .  S
N2085      H2089   1.046       .  S
N2085      H2090   1.046       .  S
N2088      H2091   1.046       .  S
N2088      H2092   1.046       .  S
C2093      C2094   1.396       .  A
C2093      C2098   1.395       .  A
C2093      H2100   1.083       .  S
C2094      C2095   1.420       .  A
C2095      C2096   1.393       .  A
C2095      N2102   1.433       .  S
C2096      C2097   1.402       .  A
C2096      H2101   1.080       .  S
C2097      C2098   1.442       .  A
C2098      N2099   1.437       .  S
N2099      H2103   1.042       .  S
N2099      H2104   1.042       .  S
N2102      H2105   1.046       .  S
N2102      H2106   1.037   1_545  S
C2107      C2108   1.416       .  A
C2107      C2112   1.385       .  A
C2107      H2114   1.080       .  S
C2108      C2109   1.425       .  A
C2109      C2110   1.393       .  A
C2109      N2116   1.424       .  S
C2110      C2111   1.389       .  A
C2110      H2115   1.085       .  S
C2111      C2112   1.406       .  A
C2112      N2113   1.440   1_565  S
N2113      H2117   1.045       .  S
N2113      H2118   1.043       .  S
N2116      H2119   1.046       .  S
N2116      H2120   1.046       .  S
C2121      C2122   1.432       .  A
C2121      C2126   1.395       .  A
C2121      H2128   1.075       .  S
C2122      C2123   1.430       .  A
C2123      C2124   1.409       .  A
C2123      N2130   1.441       .  S
C2124      C2125   1.414       .  A
C2124      H2129   1.083       .  S
C2125      C2126   1.399       .  A
C2126      N2127   1.440       .  S
N2127      H2131   1.046       .  S
N2127      H2132   1.046       .  S
N2130      H2133   1.041       .  S
N2130      H2134   1.044       .  S
C2135      C2136   1.406       .  A
C2135      C2140   1.406       .  A
C2135      H2142   1.084       .  S
C2136      C2137   1.391       .  A
C2137      C2138   1.399       .  A
C2137      N2144   1.440       .  S
C2138      C2139   1.431       .  A
C2138      H2143   1.057       .  S
C2139      C2140   1.435       .  A
C2140      N2141   1.434       .  S
N2141      H2145   1.042       .  S
N2141      H2146   1.043       .  S
N2144      H2147   1.046       .  S
N2144      H2148   1.045       .  S
C2149      C2150   1.397       .  A
C2149      C2154   1.391       .  A
C2149      H2156   1.085       .  S
C2150      C2151   1.410       .  A
C2151      C2152   1.402       .  A
C2151      N2158   1.437       .  S
C2152      C2153   1.423       .  A
C2152      H2157   1.078       .  S
C2153      C2154   1.427       .  A
C2154      N2155   1.434       .  S
N2155      H2159   1.046       .  S
N2155      H2160   1.046       .  S
N2158      H2161   1.041       .  S
N2158      H2162   1.046       .  S
C2163      C2164   1.391       .  A
C2163      C2168   1.381       .  A
C2163      H2170   1.084       .  S
C2164      C2165   1.415       .  A
C2165      C2166   1.411       .  A
C2165      N2172   1.437       .  S
C2166      C2167   1.414       .  A
C2166      H2171   1.079       .  S
C2167      C2168   1.424       .  A
C2168      N2169   1.432       .  S
N2169      H2173   1.046       .  S
N2169      H2174   1.046       .  S
N2172      H2175   1.044       .  S
N2172      H2176   1.045       .  S
C2177      C2178   1.431       .  A
C2177      C2182   1.410       .  A
C2177      H2184   1.083       .  S
C2178      C2179   1.425       .  A
C2179      C2180   1.421       .  A
C2179      N2186   1.429       .  S
C2180      C2181   1.414       .  A
C2180      H2185   1.084       .  S
C2181      C2182   1.413       .  A
C2182      N2183   1.438       .  S
N2183      H2187   1.046       .  S
N2183      H2188   1.041       .  S
N2186      H2189   1.045       .  S
N2186      H2190   1.046       .  S
C2191      C2192   1.402       .  A
C2191      C2196   1.417       .  A
C2191      H2198   1.084       .  S
C2192      C2193   1.415       .  A
C2193      C2194   1.399       .  A
C2193      N2200   1.438       .  S
C2194      C2195   1.420       .  A
C2194      H2199   1.084       .  S
C2195      C2196   1.446       .  A
C2196      N2197   1.429       .  S
N2197      H2201   1.042       .  S
N2197      H2202   1.042       .  S
N2200      H2203   1.044       .  S
N2200      H2204   1.045       .  S
C2205      C2206   1.406       .  A
C2205      C2210   1.427       .  A
C2205      H2212   1.083       .  S
C2206      C2207   1.415       .  A
C2207      C2208   1.397       .  A
C2207      N2214   1.437       .  S
C2208      C2209   1.412       .  A
C2208      H2213   1.082       .  S
C2209      C2210   1.431       .  A
C2210      N2211   1.435       .  S
N2211      H2215   1.046       .  S
N2211      H2216   1.044       .  S
N2214      H2217   1.045       .  S
N2214      H2218   1.046       .  S
C2219      C2220   1.420       .  A
C2219      C2224   1.404       .  A
C2219      H2226   1.079       .  S
C2220      C2221   1.449       .  A
C2221      C2222   1.412       .  A
C2221      N2228   1.438       .  S
C2222      C2223   1.396       .  A
C2222      H2227   1.085       .  S
C2223      C2224   1.412       .  A
C2224      N2225   1.437       .  S
N2225      H2229   1.042       .  S
N2225      H2230   1.043       .  S
N2228      H2231   1.033       .  S
N2228      H2232   1.046       .  S
C2233      C2234   1.404       .  A
C2233      C2238   1.429       .  A
C2233      H2240   1.083       .  S
C2234      C2235   1.402       .  A
C2235      C2236   1.411       .  A
C2235      N2242   1.439       .  S
C2236      C2237   1.430       .  A
C2236      H2241   1.072       .  S
C2237      C2238   1.439       .  A
C2238      N2239   1.434       .  S
N2239      H2243   1.046       .  S
N2239      H2244   1.041       .  S
N2242      H2245   1.045       .  S
N2242      H2246   1.046       .  S
C2247      C2248   1.404       .  A
C2247      C2252   1.415       .  A
C2247      H2254   1.082       .  S
C2248      C2249   1.416       .  A
C2249      C2250   1.411       .  A
C2249      N2256   1.439       .  S
C2250      C2251   1.416       .  A
C2250      H2255   1.077       .  S
C2251      C2252   1.435       .  A
C2252      N2253   1.439       .  S
N2253      H2257   1.045       .  S
N2253      H2258   1.042       .  S
N2256      H2259   1.046       .  S
N2256      H2260   1.046       .  S
C2261      C2262   1.404   1_556  A
C2261      C2266   1.411       .  A
C2261      H2268   1.082   1_556  S
C2262      C2263   1.423   1_554  A
C2263      C2264   1.417       .  A
C2263      N2270   1.438       .  S
C2264      C2265   1.414       .  A
C2264      H2269   1.081       .  S
C2265      C2266   1.427       .  A
C2266      N2267   1.432       .  S
N2267      H2271   1.045       .  S
N2267      H2272   1.046       .  S
N2270      H2273   1.046       .  S
N2270      H2274   1.046       .  S
C2275      C2276   1.425       .  A
C2275      C2280   1.397       .  A
C2275      H2282   1.077       .  S
C2276      C2277   1.419       .  A
C2277      C2278   1.405       .  A
C2277      N2284   1.433       .  S
C2278      C2279   1.412       .  A
C2278      H2283   1.083       .  S
C2279      C2280   1.411       .  A
C2280      N2281   1.433       .  S
N2281      H2285   1.045       .  S
N2281      H2286   1.042       .  S
N2284      H2287   1.046       .  S
N2284      H2288   1.045       .  S
C2289      C2290   1.401       .  A
C2289      C2294   1.410       .  A
C2289      H2296   1.084   1_556  S
C2290      C2291   1.424       .  A
C2291      C2292   1.419       .  A
C2291      N2298   1.439       .  S
C2292      C2293   1.421       .  A
C2292      H2297   1.080       .  S
C2293      C2294   1.443       .  A
C2294      N2295   1.437       .  S
N2295      H2299   1.046       .  S
N2295      H2300   1.035       .  S
N2298      H2301   1.043       .  S
N2298      H2302   1.046       .  S
C2303      C2304   1.391       .  A
C2303      C2308   1.406       .  A
C2303      H2310   1.081       .  S
C2304      C2305   1.425       .  A
C2305      C2306   1.408       .  A
C2305      N2312   1.438       .  S
C2306      C2307   1.411       .  A
C2306      H2311   1.072       .  S
C2307      C2308   1.449       .  A
C2308      N2309   1.424       .  S
N2309      H2313   1.047       .  S
N2309      H2314   1.046       .  S
N2312      H2315   1.044       .  S
N2312      H2316   1.046       .  S
C2317      C2318   1.400       .  A
C2317      C2322   1.410       .  A
C2317      H2324   1.084       .  S
C2318      C2319   1.418       .  A
C2319      C2320   1.407       .  A
C2319      N2326   1.433       .  S
C2320      C2321   1.421       .  A
C2320      H2325   1.083       .  S
C2321      C2322   1.438       .  A
C2322      N2323   1.431       .  S
N2323      H2327   1.046       .  S
N2323      H2328   1.046       .  S
N2326      H2329   1.046       .  S
N2326      H2330   1.041       .  S
C2331      C2332   1.399       .  A
C2331      C2336   1.414       .  A
C2331      H2338   1.084       .  S
C2332      C2333   1.412       .  A
C2333      C2334   1.401       .  A
C2333      N2340   1.441       .  S
C2334      C2335   1.424       .  A
C2334      H2339   1.081       .  S
C2335      C2336   1.429       .  A
C2336      N2337   1.424       .  S
N2337      H2341   1.046       .  S
N2337      H2342   1.046       .  S
N2340      H2343   1.043       .  S
N2340      H2344   1.046       .  S
C2345      C2346   1.406       .  A
C2345      C2350   1.394       .  A
C2345      H2352   1.082       .  S
C2346      C2347   1.417       .  A
C2347      C2348   1.410       .  A
C2347      N2354   1.437       .  S
C2348      C2349   1.420       .  A
C2348      H2353   1.077       .  S
C2349      C2350   1.422       .  A
C2350      N2351   1.434       .  S
N2351      H2355   1.046       .  S
N2351      H2356   1.046       .  S
N2354      H2357   1.044       .  S
N2354      H2358   1.045       .  S
C2359      C2360   1.398       .  A
C2359      C2364   1.406       .  A
C2359      H2366   1.084       .  S
C2360      C2361   1.397       .  A
C2361      C2362   1.399       .  A
C2361      N2368   1.430       .  S
C2362      C2363   1.420       .  A
C2362      H2367   1.077       .  S
C2363      C2364   1.429       .  A
C2364      N2365   1.431       .  S
N2365      H2369   1.046       .  S
N2365      H2370   1.046       .  S
N2368      H2371   1.045       .  S
N2368      H2372   1.045       .  S
C2373      C2374   1.424       .  A
C2373      C2378   1.399       .  A
C2373      H2380   1.076       .  S
C2374      C2375   1.434       .  A
C2375      C2376   1.408       .  A
C2375      N2382   1.438       .  S
C2376      C2377   1.406       .  A
C2376      H2381   1.083       .  S
C2377      C2378   1.409       .  A
C2378      N2379   1.437       .  S
N2379      H2383   1.046       .  S
N2379      H2384   1.041       .  S
N2382      H2385   1.038       .  S
N2382      H2386   1.046       .  S
C2387      C2388   1.399       .  A
C2387      C2392   1.397       .  A
C2387      H2394   1.083       .  S
C2388      C2389   1.413       .  A
C2389      C2390   1.420       .  A
C2389      N2396   1.434       .  S
C2390      C2391   1.422       .  A
C2390      H2395   1.076       .  S
C2391      C2392   1.432       .  A
C2392      N2393   1.433       .  S
N2393      H2397   1.046       .  S
N2393      H2398   1.046       .  S
N2396      H2399   1.045       .  S
N2396      H2400   1.045       .  S
C2401      C2402   1.420       .  A
C2401      C2406   1.399       .  A
C2401      H2408   1.077       .  S
C2402      C2403   1.418       .  A
C2403      C2404   1.405   1_554  A
C2403      N2410   1.433       .  S
C2404      C2405   1.410       .  A
C2404      H2409   1.083       .  S
C2405      C2406   1.413   1_556  A
C2406      N2407   1.435       .  S
N2407      H2411   1.046       .  S
N2407      H2412   1.040       .  S
N2410      H2413   1.046       .  S
N2410      H2414   1.045       .  S
C2415      C2416   1.386       .  A
C2415      C2420   1.398       .  A
C2415      H2422   1.084       .  S
C2416      C2417   1.419       .  A
C2417      C2418   1.393       .  A
C2417      N2424   1.436       .  S
C2418      C2419   1.400       .  A
C2418      H2423   1.076       .  S
C2419      C2420   1.441       .  A
C2420      N2421   1.433       .  S
N2421      H2425   1.046       .  S
N2421      H2426   1.046       .  S
N2424      H2427   1.044       .  S
N2424      H2428   1.044       .  S
C2429      C2430   1.405       .  A
C2429      C2434   1.417       .  A
C2429      H2436   1.084       .  S
C2430      C2431   1.412       .  A
C2431      C2432   1.398       .  A
C2431      N2438   1.435       .  S
C2432      C2433   1.424       .  A
C2432      H2437   1.081       .  S
C2433      C2434   1.438       .  A
C2434      N2435   1.433       .  S
N2435      H2439   1.045       .  S
N2435      H2440   1.031       .  S
N2438      H2441   1.046       .  S
N2438      H2442   1.042       .  S
C2443      C2444   1.420       .  A
C2443      C2448   1.410       .  A
C2443      H2450   1.078       .  S
C2444      C2445   1.428       .  A
C2445      C2446   1.401       .  A
C2445      N2452   1.432       .  S
C2446      C2447   1.398       .  A
C2446      H2451   1.085       .  S
C2447      C2448   1.411       .  A
C2448      N2449   1.438       .  S
N2449      H2453   1.046       .  S
N2449      H2454   1.044       .  S
N2452      H2455   1.046       .  S
N2452      H2456   1.045       .  S
C2457      C2458   1.438       .  A
C2457      C2462   1.423       .  A
C2457      H2464   1.082       .  S
C2458      C2459   1.420       .  A
C2459      C2460   1.407       .  A
C2459      N2466   1.428       .  S
C2460      C2461   1.414       .  A
C2460      H2465   1.081       .  S
C2461      C2462   1.405       .  A
C2462      N2463   1.438       .  S
N2463      H2467   1.045       .  S
N2463      H2468   1.041       .  S
N2466      H2469   1.046       .  S
N2466      H2470   1.046       .  S
C2471      C2472   1.406       .  A
C2471      C2476   1.422       .  A
C2471      H2478   1.084       .  S
C2472      C2473   1.421       .  A
C2473      C2474   1.410       .  A
C2473      N2480   1.433       .  S
C2474      C2475   1.423       .  A
C2474      H2479   1.084       .  S
C2475      C2476   1.438       .  A
C2476      N2477   1.429       .  S
N2477      H2481   1.046       .  S
N2477      H2482   1.046       .  S
N2480      H2483   1.046       .  S
N2480      H2484   1.041       .  S
C2485      C2486   1.404       .  A
C2485      C2490   1.404       .  A
C2485      H2492   1.083       .  S
C2486      C2487   1.411       .  A
C2487      C2488   1.413       .  A
C2487      N2494   1.438       .  S
C2488      C2489   1.422       .  A
C2488      H2493   1.076       .  S
C2489      C2490   1.434       .  A
C2490      N2491   1.436       .  S
N2491      H2495   1.045       .  S
N2491      H2496   1.035       .  S
N2494      H2497   1.043       .  S
N2494      H2498   1.045       .  S
C2499      C2500   1.397       .  A
C2499      C2504   1.407       .  A
C2499      H2506   1.083       .  S
C2500      C2501   1.422       .  A
C2501      C2502   1.397       .  A
C2501      N2508   1.434       .  S
C2502      C2503   1.412       .  A
C2502      H2507   1.081       .  S
C2503      C2504   1.440       .  A
C2504      N2505   1.431       .  S
N2505      H2509   1.046       .  S
N2505      H2510   1.046       .  S
N2508      H2511   1.045       .  S
N2508      H2512   1.042       .  S
C2513      C2514   1.404       .  A
C2513      C2518   1.392       .  A
C2513      H2520   1.074       .  S
C2514      C2515   1.421       .  A
C2515      C2516   1.385       .  A
C2515      N2522   1.435       .  S
C2516      C2517   1.408       .  A
C2516      H2521   1.079       .  S
C2517      C2518   1.426       .  A
C2518      N2519   1.443       .  S
N2519      H2523   1.046       .  S
N2519      H2524   1.043       .  S
N2522      H2525   1.045       .  S
N2522      H2526   1.038       .  S
C2527      C2528   1.389       .  A
C2527      C2532   1.392       .  A
C2527      H2534   1.084       .  S
C2528      C2529   1.424       .  A
C2529      C2530   1.397       .  A
C2529      N2536   1.434       .  S
C2530      C2531   1.406       .  A
C2530      H2535   1.078       .  S
C2531      C2532   1.435       .  A
C2532      N2533   1.432       .  S
N2533      H2537   1.046       .  S
N2533      H2538   1.046       .  S
N2536      H2539   1.036       .  S
N2536      H2540   1.045       .  S
C2541      C2542   1.397       .  A
C2541      C2546   1.405       .  A
C2541      H2548   1.077       .  S
C2542      C2543   1.422       .  A
C2543      C2544   1.397       .  A
C2543      N2550   1.431       .  S
C2544      C2545   1.409       .  A
C2544      H2549   1.084       .  S
C2545      C2546   1.439       .  A
C2546      N2547   1.438       .  S
N2547      H2551   1.044       .  S
N2547      H2552   1.044       .  S
N2550      H2553   1.045       .  S
N2550      H2554   1.041       .  S
C2555      C2556   1.398       .  A
C2555      C2560   1.400       .  A
C2555      H2562   1.083       .  S
C2556      C2557   1.420       .  A
C2557      C2558   1.405       .  A
C2557      N2564   1.438       .  S
C2558      C2559   1.414       .  A
C2558      H2563   1.079       .  S
C2559      C2560   1.434       .  A
C2560      N2561   1.440       .  S
N2561      H2565   1.045       .  S
N2561      H2566   1.043       .  S
N2564      H2567   1.044       .  S
N2564      H2568   1.045       .  S
C2569      C2570   1.429       .  A
C2569      C2574   1.413       .  A
C2569      H2576   1.082       .  S
C2570      C2571   1.450       .  A
C2571      C2572   1.399       .  A
C2571      N2578   1.430       .  S
C2572      C2573   1.386       .  A
C2572      H2577   1.086       .  S
C2573      C2574   1.409       .  A
C2574      N2575   1.437       .  S
N2575      H2579   1.046       .  S
N2575      H2580   1.044       .  S
N2578      H2581   1.046       .  S
N2578      H2582   1.046       .  S
C2583      C2584   1.407       .  A
C2583      C2588   1.410       .  A
C2583      H2590   1.082   1_554  S
C2584      C2585   1.426       .  A
C2585      C2586   1.412       .  A
C2585      N2592   1.437       .  S
C2586      C2587   1.415       .  A
C2586      H2591   1.080       .  S
C2587      C2588   1.428       .  A
C2588      N2589   1.433       .  S
N2589      H2593   1.046   1_554  S
N2589      H2594   1.046       .  S
N2592      H2595   1.044       .  S
N2592      H2596   1.045       .  S
C2597      C2598   1.430       .  A
C2597      C2602   1.390       .  A
C2597      H2604   1.079       .  S
C2598      C2599   1.416       .  A
C2599      C2600   1.404       .  A
C2599      N2606   1.432       .  S
C2600      C2601   1.408       .  A
C2600      H2605   1.085       .  S
C2601      C2602   1.400       .  A
C2602      N2603   1.440       .  S
N2603      H2607   1.046       .  S
N2603      H2608   1.041       .  S
N2606      H2609   1.046       .  S
N2606      H2610   1.046       .  S
C2611      C2612   1.426       .  A
C2611      C2616   1.404       .  A
C2611      H2618   1.083       .  S
C2612      C2613   1.418       .  A
C2613      C2614   1.389       .  A
C2613      N2620   1.432       .  S
C2614      C2615   1.407       .  A
C2614      H2619   1.084       .  S
C2615      C2616   1.401       .  A
C2616      N2617   1.437       .  S
N2617      H2621   1.046       .  S
N2617      H2622   1.046       .  S
N2620      H2623   1.046       .  S
N2620      H2624   1.046       .  S
C2625      C2626   1.394       .  A
C2625      C2630   1.395       .  A
C2625      H2632   1.083       .  S
C2626      C2627   1.387       .  A
C2627      C2628   1.382       .  A
C2627      N2634   1.441       .  S
C2628      C2629   1.420       .  A
C2628      H2633   1.063       .  S
C2629      C2630   1.448       .  A
C2630      N2631   1.442       .  S
N2631      H2635   1.045       .  S
N2631      H2636   1.041       .  S
N2634      H2637   1.046       .  S
N2634      H2638   1.046       .  S
C2639      C2640   1.400       .  A
C2639      C2644   1.397       .  A
C2639      H2646   1.085       .  S
C2640      C2641   1.403       .  A
C2641      C2642   1.397       .  A
C2641      N2648   1.439       .  S
C2642      C2643   1.427       .  A
C2642      H2647   1.078       .  S
C2643      C2644   1.426       .  A
C2644      N2645   1.435       .  S
N2645      H2649   1.045       .  S
N2645      H2650   1.046       .  S
N2648      H2651   1.043       .  S
N2648      H2652   1.046       .  S
C2653      C2654   1.404       .  A
C2653      C2658   1.411       .  A
C2653      H2660   1.082       .  S
C2654      C2655   1.406       .  A
C2655      C2656   1.378       .  A
C2655      N2662   1.434       .  S
C2656      C2657   1.416       .  A
C2656      H2661   1.083       .  S
C2657      C2658   1.421       .  A
C2658      N2659   1.431       .  S
N2659      H2663   1.045       .  S
N2659      H2664   1.046       .  S
N2662      H2665   1.046       .  S
N2662      H2666   1.042       .  S
C2667      C2668   1.429       .  A
C2667      C2672   1.403       .  A
C2667      H2674   1.082       .  S
C2668      C2669   1.428       .  A
C2669      C2670   1.400       .  A
C2669      N2676   1.439       .  S
C2670      C2671   1.407       .  A
C2670      H2675   1.083       .  S
C2671      C2672   1.396       .  A
C2672      N2673   1.438       .  S
N2673      H2677   1.046       .  S
N2673      H2678   1.046       .  S
N2676      H2679   1.034       .  S
N2676      H2680   1.044       .  S
C2681      C2682   1.397       .  A
C2681      C2686   1.415       .  A
C2681      H2688   1.084       .  S
C2682      C2683   1.416       .  A
C2683      C2684   1.397       .  A
C2683      N2690   1.437       .  S
C2684      C2685   1.414       .  A
C2684      H2689   1.082       .  S
C2685      C2686   1.442       .  A
C2686      N2687   1.430       .  S
N2687      H2691   1.046       .  S
N2687      H2692   1.046       .  S
N2690      H2693   1.044       .  S
N2690      H2694   1.045       .  S
C2695      C2696   1.416       .  A
C2695      C2700   1.406       .  A
C2695      H2702   1.080       .  S
C2696      C2697   1.400       .  A
C2697      C2698   1.413       .  A
C2697      N2704   1.436       .  S
C2698      C2699   1.433       .  A
C2698      H2703   1.083       .  S
C2699      C2700   1.409       .  A
C2700      N2701   1.432       .  S
N2701      H2705   1.045       .  S
N2701      H2706   1.045       .  S
N2704      H2707   1.046       .  S
N2704      H2708   1.045       .  S
C2709      C2710   1.376       .  A
C2709      C2714   1.400       .  A
C2709      H2716   1.085       .  S
C2710      C2711   1.426       .  A
C2711      C2712   1.415       .  A
C2711      N2718   1.438       .  S
C2712      C2713   1.408       .  A
C2712      H2717   1.083       .  S
C2713      C2714   1.460       .  A
C2714      N2715   1.432       .  S
N2715      H2719   1.046       .  S
N2715      H2720   1.046       .  S
N2718      H2721   1.043       .  S
N2718      H2722   1.046       .  S
C2723      C2724   1.404       .  A
C2723      C2728   1.405       .  A
C2723      H2730   1.084       .  S
C2724      C2725   1.403       .  A
C2725      C2726   1.403       .  A
C2725      N2732   1.438       .  S
C2726      C2727   1.422       .  A
C2726      H2731   1.082       .  S
C2727      C2728   1.425       .  A
C2728      N2729   1.430       .  S
N2729      H2733   1.045       .  S
N2729      H2734   1.046       .  S
N2732      H2735   1.045       .  S
N2732      H2736   1.046       .  S
C2737      C2738   1.391       .  A
C2737      C2742   1.388       .  A
C2737      H2744   1.086       .  S
C2738      C2739   1.412       .  A
C2739      C2740   1.407       .  A
C2739      N2746   1.438       .  S
C2740      C2741   1.420       .  A
C2740      H2745   1.077       .  S
C2741      C2742   1.444       .  A
C2742      N2743   1.442       .  S
N2743      H2747   1.046       .  S
N2743      H2748   1.033       .  S
N2746      H2749   1.043   1_565  S
N2746      H2750   1.045   1_565  S
C2751      C2752   1.403       .  A
C2751      C2756   1.400       .  A
C2751      H2758   1.083       .  S
C2752      C2753   1.413       .  A
C2753      C2754   1.400       .  A
C2753      N2760   1.438       .  S
C2754      C2755   1.423       .  A
C2754      H2759   1.075       .  S
C2755      C2756   1.437       .  A
C2756      N2757   1.436       .  S
N2757      H2761   1.045       .  S
N2757      H2762   1.036       .  S
N2760      H2763   1.044       .  S
N2760      H2764   1.045       .  S
C2765      C2766   1.404       .  A
C2765      C2770   1.403       .  A
C2765      H2772   1.082       .  S
C2766      C2767   1.415       .  A
C2767      C2768   1.411       .  A
C2767      N2774   1.439       .  S
C2768      C2769   1.422       .  A
C2768      H2773   1.078       .  S
C2769      C2770   1.439       .  A
C2770      N2771   1.432       .  S
N2771      H2775   1.041       .  S
N2771      H2776   1.040       .  S
N2774      H2777   1.046       .  S
N2774      H2778   1.046       .  S
C2779      C2780   1.401       .  A
C2779      C2784   1.415       .  A
C2779      H2786   1.084       .  S
C2780      C2781   1.424       .  A
C2781      C2782   1.416       .  A
C2781      N2788   1.433       .  S
C2782      C2783   1.423       .  A
C2782      H2787   1.084       .  S
C2783      C2784   1.453       .  A
C2784      N2785   1.431       .  S
N2785      H2789   1.042       .  S
N2785      H2790   1.042       .  S
N2788      H2791   1.041       .  S
N2788      H2792   1.046       .  S
C2793      C2794   1.404       .  A
C2793      C2798   1.422       .  A
C2793      H2800   1.084       .  S
C2794      C2795   1.408       .  A
C2795      C2796   1.397       .  A
C2795      N2802   1.436       .  S
C2796      C2797   1.425       .  A
C2796      H2801   1.060       .  S
C2797      C2798   1.442       .  A
C2798      N2799   1.430       .  S
N2799      H2803   1.046       .  S
N2799      H2804   1.046       .  S
N2802      H2805   1.042       .  S
N2802      H2806   1.045       .  S
C2807      C2808   1.400       .  A
C2807      C2812   1.413       .  A
C2807      H2814   1.083   1_545  S
C2808      C2809   1.431       .  A
C2809      C2810   1.426       .  A
C2809      N2816   1.439       .  S
C2810      C2811   1.417       .  A
C2810      H2815   1.077       .  S
C2811      C2812   1.434       .  A
C2812      N2813   1.432       .  S
N2813      H2817   1.046       .  S
N2813      H2818   1.046       .  S
N2816      H2819   1.043       .  S
N2816      H2820   1.046       .  S
C2821      C2822   1.408       .  A
C2821      C2826   1.407       .  A
C2821      H2828   1.080       .  S
C2822      C2823   1.430       .  A
C2823      C2824   1.403       .  A
C2823      N2830   1.440       .  S
C2824      C2825   1.407       .  A
C2824      H2829   1.080       .  S
C2825      C2826   1.433       .  A
C2826      N2827   1.432       .  S
N2827      H2831   1.043       .  S
N2827      H2832   1.045       .  S
N2830      H2833   1.045       .  S
N2830      H2834   1.045       .  S
C2835      C2836   1.409       .  A
C2835      C2840   1.398       .  A
C2835      H2842   1.081       .  S
C2836      C2837   1.435       .  A
C2837      C2838   1.417       .  A
C2837      N2844   1.430       .  S
C2838      C2839   1.402       .  A
C2838      H2843   1.084       .  S
C2839      C2840   1.413       .  A
C2840      N2841   1.437       .  S
N2841      H2845   1.046       .  S
N2841      H2846   1.046       .  S
N2844      H2847   1.046       .  S
N2844      H2848   1.046       .  S
C2849      C2850   1.426       .  A
C2849      C2854   1.399       .  A
C2849      H2856   1.077       .  S
C2850      C2851   1.439       .  A
C2851      C2852   1.415       .  A
C2851      N2858   1.435       .  S
C2852      C2853   1.399       .  A
C2852      H2857   1.084       .  S
C2853      C2854   1.404       .  A
C2854      N2855   1.434       .  S
N2855      H2859   1.045       .  S
N2855      H2860   1.045       .  S
N2858      H2861   1.046       .  S
N2858      H2862   1.046       .  S
C2863      C2864   1.404       .  A
C2863      C2868   1.398       .  A
C2863      H2870   1.079       .  S
C2864      C2865   1.407       .  A
C2865      C2866   1.410       .  A
C2865      N2872   1.438       .  S
C2866      C2867   1.425       .  A
C2866      H2871   1.079       .  S
C2867      C2868   1.421       .  A
C2868      N2869   1.435       .  S
N2869      H2873   1.046       .  S
N2869      H2874   1.046       .  S
N2872      H2875   1.046       .  S
N2872      H2876   1.046       .  S
C2877      C2878   1.396       .  A
C2877      C2882   1.408       .  A
C2877      H2884   1.084       .  S
C2878      C2879   1.398       .  A
C2879      C2880   1.396       .  A
C2879      N2886   1.429       .  S
C2880      C2881   1.411       .  A
C2880      H2885   1.067       .  S
C2881      C2882   1.439       .  A
C2882      N2883   1.432       .  S
N2883      H2887   1.045       .  S
N2883      H2888   1.046       .  S
N2886      H2889   1.045       .  S
N2886      H2890   1.046       .  S
C2891      C2892   1.386       .  A
C2891      C2896   1.386       .  A
C2891      H2898   1.085       .  S
C2892      C2893   1.407       .  A
C2893      C2894   1.395       .  A
C2893      N2900   1.433       .  S
C2894      C2895   1.412       .  A
C2894      H2899   1.084       .  S
C2895      C2896   1.443       .  A
C2896      N2897   1.434       .  S
N2897      H2901   1.046       .  S
N2897      H2902   1.046       .  S
N2900      H2903   1.046       .  S
N2900      H2904   1.046       .  S
C2905      C2906   1.391       .  A
C2905      C2910   1.392       .  A
C2905      H2912   1.084   1_545  S
C2906      C2907   1.414       .  A
C2907      C2908   1.407       .  A
C2907      N2914   1.438       .  S
C2908      C2909   1.412       .  A
C2908      H2913   1.072       .  S
C2909      C2910   1.431       .  A
C2910      N2911   1.433       .  S
N2911      H2915   1.046       .  S
N2911      H2916   1.046       .  S
N2914      H2917   1.044       .  S
N2914      H2918   1.046       .  S
C2919      C2920   1.414       .  A
C2919      C2924   1.411       .  A
C2919      H2926   1.080       .  S
C2920      C2921   1.434       .  A
C2921      C2922   1.390       .  A
C2921      N2928   1.430       .  S
C2922      C2923   1.385       .  A
C2922      H2927   1.086       .  S
C2923      C2924   1.419       .  A
C2924      N2925   1.438       .  S
N2925      H2929   1.046       .  S
N2925      H2930   1.044   1_545  S
N2928      H2931   1.046       .  S
N2928      H2932   1.046       .  S
C2933      C2934   1.397       .  A
C2933      C2938   1.401       .  A
C2933      H2940   1.084       .  S
C2934      C2935   1.401       .  A
C2935      C2936   1.409       .  A
C2935      N2942   1.437       .  S
C2936      C2937   1.426       .  A
C2936      H2941   1.083       .  S
C2937      C2938   1.427       .  A
C2938      N2939   1.429       .  S
N2939      H2943   1.046       .  S
N2939      H2944   1.046       .  S
N2942      H2945   1.045       .  S
N2942      H2946   1.046       .  S
C2947      C2948   1.380       .  A
C2947      C2952   1.387       .  A
C2947      H2954   1.086       .  S
C2948      C2949   1.418       .  A
C2949      C2950   1.407       .  A
C2949      N2956   1.439       .  S
C2950      C2951   1.412       .  A
C2950      H2955   1.084       .  S
C2951      C2952   1.441       .  A
C2952      N2953   1.434       .  S
N2953      H2957   1.045       .  S
N2953      H2958   1.046       .  S
N2956      H2959   1.043       .  S
N2956      H2960   1.046       .  S
C2961      C2962   1.387       .  A
C2961      C2966   1.401       .  A
C2961      H2968   1.084       .  S
C2962      C2963   1.406       .  A
C2963      C2964   1.402       .  A
C2963      N2970   1.440       .  S
C2964      C2965   1.418       .  A
C2964      H2969   1.073       .  S
C2965      C2966   1.446       .  A
C2966      N2967   1.435       .  S
N2967      H2971   1.045       .  S
N2967      H2972   1.046       .  S
N2970      H2973   1.045       .  S
N2970      H2974   1.046       .  S
C2975      C2976   1.401       .  A
C2975      C2980   1.409       .  A
C2975      H2982   1.084       .  S
C2976      C2977   1.399       .  A
C2977      C2978   1.390       .  A
C2977      N2984   1.434       .  S
C2978      C2979   1.418       .  A
C2978      H2983   1.080       .  S
C2979      C2980   1.423       .  A
C2980      N2981   1.431       .  S
N2981      H2985   1.045       .  S
N2981      H2986   1.046       .  S
N2984      H2987   1.046       .  S
N2984      H2988   1.045       .  S
C2989      C2990   1.421       .  A
C2989      C2994   1.388       .  A
C2989      H2996   1.080       .  S
C2990      C2991   1.419       .  A
C2991      C2992   1.408       .  A
C2991      N2998   1.436       .  S
C2992      C2993   1.408       .  A
C2992      H2997   1.084       .  S
C2993      C2994   1.404       .  A
C2994      N2995   1.439       .  S
N2995      H2999   1.046       .  S
N2995      H3000   1.042       .  S
N2998      H3001   1.044       .  S
N2998      H3002   1.046       .  S
C3003      C3004   1.413       .  A
C3003      C3008   1.381       .  A
C3003      H3010   1.071       .  S
C3004      C3005   1.422       .  A
C3005      C3006   1.401       .  A
C3005      N3012   1.432       .  S
C3006      C3007   1.403       .  A
C3006      H3011   1.084       .  S
C3007      C3008   1.410       .  A
C3008      N3009   1.441       .  S
N3009      H3013   1.046       .  S
N3009      H3014   1.045       .  S
N3012      H3015   1.045       .  S
N3012      H3016   1.046       .  S
C3017      C3018   1.427       .  A
C3017      C3022   1.400       .  A
C3017      H3024   1.083       .  S
C3018      C3019   1.423       .  A
C3019      C3020   1.399       .  A
C3019      N3026   1.432       .  S
C3020      C3021   1.402       .  A
C3020      H3025   1.080       .  S
C3021      C3022   1.399       .  A
C3022      N3023   1.438       .  S
N3023      H3027   1.046       .  S
N3023      H3028   1.045       .  S
N3026      H3029   1.045       .  S
N3026      H3030   1.046       .  S
C3031      C3032   1.384       .  A
C3031      C3036   1.392       .  A
C3031      H3038   1.085       .  S
C3032      C3033   1.412       .  A
C3033      C3034   1.383       .  A
C3033      N3040   1.429       .  S
C3034      C3035   1.398       .  A
C3034      H3039   1.079       .  S
C3035      C3036   1.452       .  A
C3036      N3037   1.442       .  S
N3037      H3041   1.046       .  S
N3037      H3042   1.034       .  S
N3040      H3043   1.046       .  S
N3040      H3044   1.045       .  S
C3045      C3046   1.419       .  A
C3045      C3050   1.393       .  A
C3045      H3052   1.083       .  S
C3046      C3047   1.440       .  A
C3047      C3048   1.412       .  A
C3047      N3054   1.429       .  S
C3048      C3049   1.396       .  A
C3048      H3053   1.084       .  S
C3049      C3050   1.408       .  A
C3050      N3051   1.433       .  S
N3051      H3055   1.040       .  S
N3051      H3056   1.046       .  S
N3054      H3057   1.046       .  S
N3054      H3058   1.046       .  S
C3059      C3060   1.397       .  A
C3059      C3064   1.395       .  A
C3059      H3066   1.082       .  S
C3060      C3061   1.407       .  A
C3061      C3062   1.414       .  A
C3061      N3068   1.437       .  S
C3062      C3063   1.418       .  A
C3062      H3067   1.079       .  S
C3063      C3064   1.423       .  A
C3064      N3065   1.430       .  S
N3065      H3069   1.045       .  S
N3065      H3070   1.046       .  S
N3068      H3071   1.046       .  S
N3068      H3072   1.046       .  S
C3073      C3074   1.386       .  A
C3073      C3078   1.392       .  A
C3073      H3080   1.086       .  S
C3074      C3075   1.422       .  A
C3075      C3076   1.412       .  A
C3075      N3082   1.439       .  S
C3076      C3077   1.410       .  A
C3076      H3081   1.083       .  S
C3077      C3078   1.434       .  A
C3078      N3079   1.432       .  S
N3079      H3083   1.045       .  S
N3079      H3084   1.046       .  S
N3082      H3085   1.043       .  S
N3082      H3086   1.045       .  S
C3087      C3088   1.378       .  A
C3087      C3092   1.388       .  A
C3087      H3094   1.085       .  S
C3088      C3089   1.418       .  A
C3089      C3090   1.400       .  A
C3089      N3096   1.438       .  S
C3090      C3091   1.407       .  A
C3090      H3095   1.084       .  S
C3091      C3092   1.446       .  A
C3092      N3093   1.433       .  S
N3093      H3097   1.045       .  S
N3093      H3098   1.046       .  S
N3096      H3099   1.043       .  S
N3096      H3100   1.045       .  S
C3101      C3102   1.410       .  A
C3101      C3106   1.416       .  A
C3101      H3108   1.083       .  S
C3102      C3103   1.457       .  A
C3103      C3104   1.391       .  A
C3103      N3110   1.440       .  S
C3104      C3105   1.385       .  A
C3104      H3109   1.085       .  S
C3105      C3106   1.421       .  A
C3106      N3107   1.438       .  S
N3107      H3111   1.046       .  S
N3107      H3112   1.046       .  S
N3110      H3113   1.026       .  S
N3110      H3114   1.045       .  S
C3115      C3116   1.404       .  A
C3115      C3120   1.407       .  A
C3115      H3122   1.085       .  S
C3116      C3117   1.398       .  A
C3117      C3118   1.386       .  A
C3117      N3124   1.442       .  S
C3118      C3119   1.429       .  A
C3118      H3123   1.077       .  S
C3119      C3120   1.435       .  A
C3120      N3121   1.436       .  S
N3121      H3125   1.045       .  S
N3121      H3126   1.034       .  S
N3124      H3127   1.041       .  S
N3124      H3128   1.045       .  S
C3129      C3130   1.415       .  A
C3129      C3134   1.412       .  A
C3129      H3136   1.083       .  S
C3130      C3131   1.403       .  A
C3131      C3132   1.395       .  A
C3131      N3138   1.440       .  S
C3132      C3133   1.432       .  A
C3132      H3137   1.078       .  S
C3133      C3134   1.424       .  A
C3134      N3135   1.438       .  S
N3135      H3139   1.045       .  S
N3135      H3140   1.042       .  S
N3138      H3141   1.046       .  S
N3138      H3142   1.046       .  S
C3143      C3144   1.404       .  A
C3143      C3148   1.423       .  A
C3143      H3150   1.083       .  S
C3144      C3145   1.415       .  A
C3145      C3146   1.398       .  A
C3145      N3152   1.439       .  S
C3146      C3147   1.419       .  A
C3146      H3151   1.083       .  S
C3147      C3148   1.437       .  A
C3148      N3149   1.431       .  S
N3149      H3153   1.046       .  S
N3149      H3154   1.046       .  S
N3152      H3155   1.044       .  S
N3152      H3156   1.045       .  S
C3157      C3158   1.413       .  A
C3157      C3162   1.398       .  A
C3157      H3164   1.081       .  S
C3158      C3159   1.443       .  A
C3159      C3160   1.420       .  A
C3159      N3166   1.430       .  S
C3160      C3161   1.398       .  A
C3160      H3165   1.084       .  S
C3161      C3162   1.420       .  A
C3162      N3163   1.437       .  S
N3163      H3167   1.045       .  S
N3163      H3168   1.044       .  S
N3166      H3169   1.046       .  S
N3166      H3170   1.046       .  S
C3171      C3172   1.403       .  A
C3171      C3176   1.400       .  A
C3171      H3178   1.085       .  S
C3172      C3173   1.408       .  A
C3173      C3174   1.400       .  A
C3173      N3180   1.439       .  S
C3174      C3175   1.424       .  A
C3174      H3179   1.083       .  S
C3175      C3176   1.426       .  A
C3176      N3177   1.431       .  S
N3177      H3181   1.046       .  S
N3177      H3182   1.046       .  S
N3180      H3183   1.041       .  S
N3180      H3184   1.046       .  S
C3185      C3186   1.403       .  A
C3185      C3190   1.404       .  A
C3185      H3192   1.085       .  S
C3186      C3187   1.410       .  A
C3187      C3188   1.421       .  A
C3187      N3194   1.438       .  S
C3188      C3189   1.423       .  A
C3188      H3193   1.078       .  S
C3189      C3190   1.427       .  A
C3190      N3191   1.434       .  S
N3191      H3195   1.045       .  S
N3191      H3196   1.046       .  S
N3194      H3197   1.046       .  S
N3194      H3198   1.045       .  S
C3199      C3200   1.404       .  A
C3199      C3204   1.388       .  A
C3199      H3206   1.084       .  S
C3200      C3201   1.413       .  A
C3201      C3202   1.414       .  A
C3201      N3208   1.438       .  S
C3202      C3203   1.423       .  A
C3202      H3207   1.077       .  S
C3203      C3204   1.421       .  A
C3204      N3205   1.431       .  S
N3205      H3209   1.046       .  S
N3205      H3210   1.045       .  S
N3208      H3211   1.043   1_455  S
N3208      H3212   1.046       .  S
C3213      C3214   1.394       .  A
C3213      C3218   1.406       .  A
C3213      H3220   1.082       .  S
C3214      C3215   1.414       .  A
C3215      C3216   1.404       .  A
C3215      N3222   1.439       .  S
C3216      C3217   1.419       .  A
C3216      H3221   1.075       .  S
C3217      C3218   1.445       .  A
C3218      N3219   1.441       .  S
N3219      H3223   1.045       .  S
N3219      H3224   1.034       .  S
N3222      H3225   1.044       .  S
N3222      H3226   1.045       .  S
C3227      C3228   1.400       .  A
C3227      C3232   1.400       .  A
C3227      H3234   1.085       .  S
C3228      C3229   1.421       .  A
C3229      C3230   1.416       .  A
C3229      N3236   1.432       .  S
C3230      C3231   1.419       .  A
C3230      H3235   1.081       .  S
C3231      C3232   1.430       .  A
C3232      N3233   1.432       .  S
N3233      H3237   1.046       .  S
N3233      H3238   1.046       .  S
N3236      H3239   1.037       .  S
N3236      H3240   1.046       .  S
C3241      C3242   1.389       .  A
C3241      C3246   1.402       .  A
C3241      H3248   1.085       .  S
C3242      C3243   1.421       .  A
C3243      C3244   1.411       .  A
C3243      N3250   1.437       .  S
C3244      C3245   1.411       .  A
C3244      H3249   1.080       .  S
C3245      C3246   1.442       .  A
C3246      N3247   1.432       .  S
N3247      H3251   1.046       .  S
N3247      H3252   1.046       .  S
N3250      H3253   1.042       .  S
N3250      H3254   1.045       .  S
C3255      C3256   1.420       .  A
C3255      C3260   1.408       .  A
C3255      H3262   1.083       .  S
C3256      C3257   1.407       .  A
C3257      C3258   1.385       .  A
C3257      N3264   1.433       .  S
C3258      C3259   1.424       .  A
C3258      H3263   1.081       .  S
C3259      C3260   1.408       .  A
C3260      N3261   1.433       .  S
N3261      H3265   1.045       .  S
N3261      H3266   1.046       .  S
N3264      H3267   1.045       .  S
N3264      H3268   1.045       .  S
C3269      C3270   1.411       .  A
C3269      C3274   1.405       .  A
C3269      H3276   1.083       .  S
C3270      C3271   1.402       .  A
C3271      C3272   1.387       .  A
C3271      N3278   1.441       .  S
C3272      C3273   1.426       .  A
C3272      H3277   1.077       .  S
C3273      C3274   1.415       .  A
C3274      N3275   1.432       .  S
N3275      H3279   1.045       .  S
N3275      H3280   1.046       .  S
N3278      H3281   1.046       .  S
N3278      H3282   1.046       .  S
C3283      C3284   1.412       .  A
C3283      C3288   1.395       .  A
C3283      H3290   1.083       .  S
C3284      C3285   1.403       .  A
C3285      C3286   1.394       .  A
C3285      N3292   1.432       .  S
C3286      C3287   1.418       .  A
C3286      H3291   1.069       .  S
C3287      C3288   1.421       .  A
C3288      N3289   1.434       .  S
N3289      H3293   1.043       .  S
N3289      H3294   1.043       .  S
N3292      H3295   1.045       .  S
N3292      H3296   1.045       .  S
C3297      C3298   1.399       .  A
C3297      C3302   1.395       .  A
C3297      H3304   1.084       .  S
C3298      C3299   1.399       .  A
C3299      C3300   1.384       .  A
C3299      N3306   1.441       .  S
C3300      C3301   1.419       .  A
C3300      H3305   1.067       .  S
C3301      C3302   1.434       .  A
C3302      N3303   1.436       .  S
N3303      H3307   1.045       .  S
N3303      H3308   1.038       .  S
N3306      H3309   1.046       .  S
N3306      H3310   1.046       .  S
C3311      C3312   1.403       .  A
C3311      C3316   1.395       .  A
C3311      H3318   1.073       .  S
C3312      C3313   1.406       .  A
C3313      C3314   1.398       .  A
C3313      N3320   1.440       .  S
C3314      C3315   1.432       .  A
C3314      H3319   1.084       .  S
C3315      C3316   1.424       .  A
C3316      N3317   1.430       .  S
N3317      H3321   1.042       .  S
N3317      H3322   1.042       .  S
N3320      H3323   1.041       .  S
N3320      H3324   1.046       .  S
C3325      C3326   1.421       .  A
C3325      C3330   1.402       .  A
C3325      H3332   1.080       .  S
C3326      C3327   1.438       .  A
C3327      C3328   1.386       .  A
C3327      N3334   1.441       .  S
C3328      C3329   1.391       .  A
C3328      H3333   1.086       .  S
C3329      C3330   1.408       .  A
C3330      N3331   1.438       .  S
N3331      H3335   1.045       .  S
N3331      H3336   1.044       .  S
N3334      H3337   1.035       .  S
N3334      H3338   1.046       .  S
C3339      C3340   1.403       .  A
C3339      C3344   1.400       .  A
C3339      H3346   1.084       .  S
C3340      C3341   1.401       .  A
C3341      C3342   1.398       .  A
C3341      N3348   1.438       .  S
C3342      C3343   1.419       .  A
C3342      H3347   1.082       .  S
C3343      C3344   1.419       .  A
C3344      N3345   1.432       .  S
N3345      H3349   1.046       .  S
N3345      H3350   1.045       .  S
N3348      H3351   1.046       .  S
N3348      H3352   1.046       .  S
C3353      C3354   1.395       .  A
C3353      C3358   1.412       .  A
C3353      H3360   1.084       .  S
C3354      C3355   1.435       .  A
C3355      C3356   1.412       .  A
C3355      N3362   1.436       .  S
C3356      C3357   1.401       .  A
C3356      H3361   1.079       .  S
C3357      C3358   1.443       .  A
C3358      N3359   1.433       .  S
N3359      H3363   1.046       .  S
N3359      H3364   1.046       .  S
N3362      H3365   1.044       .  S
N3362      H3366   1.046       .  S
C3367      C3368   1.401       .  A
C3367      C3372   1.398       .  A
C3367      H3374   1.068       .  S
C3368      C3369   1.457       .  A
C3369      C3370   1.407       .  A
C3369      N3376   1.434       .  S
C3370      C3371   1.387       .  A
C3370      H3375   1.084       .  S
C3371      C3372   1.422       .  A
C3372      N3373   1.440       .  S
N3373      H3377   1.046       .  S
N3373      H3378   1.045       .  S
N3376      H3379   1.046       .  S
N3376      H3380   1.046       .  S
C3381      C3382   1.425       .  A
C3381      C3386   1.422       .  A
C3381      H3388   1.080       .  S
C3382      C3383   1.428       .  A
C3383      C3384   1.400       .  A
C3383      N3390   1.433       .  S
C3384      C3385   1.401       .  A
C3384      H3389   1.085       .  S
C3385      C3386   1.409       .  A
C3386      N3387   1.438       .  S
N3387      H3391   1.045       .  S
N3387      H3392   1.046       .  S
N3390      H3393   1.046       .  S
N3390      H3394   1.046       .  S
C3395      C3396   1.400       .  A
C3395      C3400   1.407       .  A
C3395      H3402   1.085       .  S
C3396      C3397   1.415       .  A
C3397      C3398   1.391       .  A
C3397      N3404   1.440       .  S
C3398      C3399   1.407       .  A
C3398      H3403   1.080       .  S
C3399      C3400   1.426       .  A
C3400      N3401   1.437       .  S
N3401      H3405   1.046       .  S
N3401      H3406   1.043       .  S
N3404      H3407   1.044       .  S
N3404      H3408   1.046       .  S
C3409      C3410   1.391       .  A
C3409      C3414   1.398       .  A
C3409      H3416   1.085       .  S
C3410      C3411   1.408       .  A
C3411      C3412   1.401       .  A
C3411      N3418   1.436       .  S
C3412      C3413   1.415       .  A
C3412      H3417   1.078       .  S
C3413      C3414   1.429       .  A
C3414      N3415   1.431       .  S
N3415      H3419   1.046       .  S
N3415      H3420   1.046       .  S
N3418      H3421   1.045       .  S
N3418      H3422   1.046       .  S
C3423      C3424   1.415       .  A
C3423      C3428   1.390       .  A
C3423      H3430   1.083       .  S
C3424      C3425   1.437       .  A
C3425      C3426   1.401       .  A
C3425      N3432   1.432       .  S
C3426      C3427   1.390       .  A
C3426      H3431   1.075       .  S
C3427      C3428   1.412       .  A
C3428      N3429   1.433       .  S
N3429      H3433   1.043       .  S
N3429      H3434   1.046       .  S
N3432      H3435   1.046       .  S
N3432      H3436   1.046       .  S
C3437      C3438   1.414       .  A
C3437      C3442   1.402       .  A
C3437      H3444   1.079       .  S
C3438      C3439   1.445       .  A
C3439      C3440   1.393       .  A
C3439      N3446   1.440       .  S
C3440      C3441   1.389       .  A
C3440      H3445   1.085       .  S
C3441      C3442   1.414       .  A
C3442      N3443   1.436       .  S
N3443      H3447   1.046       .  S
N3443      H3448   1.041       .  S
N3446      H3449   1.033       .  S
N3446      H3450   1.046       .  S
C3451      C3452   1.385       .  A
C3451      C3456   1.401       .  A
C3451      H3458   1.084       .  S
C3452      C3453   1.420       .  A
C3453      C3454   1.403       .  A
C3453      N3460   1.439       .  S
C3454      C3455   1.410       .  A
C3454      H3459   1.080       .  S
C3455      C3456   1.438       .  A
C3456      N3457   1.425       .  S
N3457      H3461   1.046       .  S
N3457      H3462   1.046       .  S
N3460      H3463   1.046       .  S
N3460      H3464   1.046       .  S
C3465      C3466   1.394       .  A
C3465      C3470   1.388       .  A
C3465      H3472   1.085       .  S
C3466      C3467   1.422       .  A
C3467      C3468   1.413       .  A
C3467      N3474   1.438       .  S
C3468      C3469   1.411       .  A
C3468      H3473   1.079       .  S
C3469      C3470   1.426       .  A
C3470      N3471   1.433       .  S
N3471      H3475   1.046       .  S
N3471      H3476   1.046       .  S
N3474      H3477   1.042       .  S
N3474      H3478   1.046       .  S
C3479      C3480   1.408       .  A
C3479      C3484   1.411       .  A
C3479      H3486   1.084       .  S
C3480      C3481   1.438       .  A
C3481      C3482   1.394       .  A
C3481      N3488   1.435       .  S
C3482      C3483   1.386       .  A
C3482      H3487   1.085       .  S
C3483      C3484   1.416       .  A
C3484      N3485   1.439       .  S
N3485      H3489   1.046       .  S
N3485      H3490   1.044       .  S
N3488      H3491   1.046       .  S
N3488      H3492   1.046       .  S
C3493      C3494   1.432       .  A
C3493      C3498   1.393       .  A
C3493      H3500   1.072       .  S
C3494      C3495   1.429       .  A
C3495      C3496   1.413       .  A
C3495      N3502   1.438       .  S
C3496      C3497   1.412       .  A
C3496      H3501   1.085       .  S
C3497      C3498   1.398       .  A
C3498      N3499   1.441       .  S
N3499      H3503   1.046       .  S
N3499      H3504   1.042       .  S
N3502      H3505   1.038       .  S
N3502      H3506   1.045       .  S
C3507      C3508   1.392       .  A
C3507      C3512   1.395       .  A
C3507      H3514   1.085       .  S
C3508      C3509   1.414       .  A
C3509      C3510   1.418       .  A
C3509      N3516   1.436       .  S
C3510      C3511   1.416       .  A
C3510      H3515   1.080       .  S
C3511      C3512   1.433       .  A
C3512      N3513   1.434       .  S
N3513      H3517   1.045       .  S
N3513      H3518   1.046       .  S
N3516      H3519   1.045       .  S
N3516      H3520   1.046       .  S
C3521      C3522   1.388       .  A
C3521      C3526   1.406       .  A
C3521      H3528   1.081       .  S
C3522      C3523   1.417       .  A
C3523      C3524   1.394       .  A
C3523      N3530   1.431       .  S
C3524      C3525   1.402       .  A
C3524      H3529   1.074       .  S
C3525      C3526   1.448       .  A
C3526      N3527   1.437       .  S
N3527      H3531   1.046       .  S
N3527      H3532   1.046       .  S
N3530      H3533   1.046       .  S
N3530      H3534   1.046       .  S
C3535      C3536   1.416       .  A
C3535      C3540   1.385       .  A
C3535      H3542   1.083       .  S
C3536      C3537   1.418       .  A
C3537      C3538   1.419       .  A
C3537      N3544   1.437       .  S
C3538      C3539   1.422       .  A
C3538      H3543   1.068       .  S
C3539      C3540   1.418       .  A
C3540      N3541   1.436       .  S
N3541      H3545   1.046       .  S
N3541      H3546   1.045       .  S
N3544      H3547   1.039       .  S
N3544      H3548   1.045       .  S
C3549      C3550   1.393       .  A
C3549      C3554   1.402       .  A
C3549      H3556   1.084       .  S
C3550      C3551   1.408       .  A
C3551      C3552   1.406       .  A
C3551      N3558   1.437       .  S
C3552      C3553   1.417       .  A
C3552      H3557   1.078       .  S
C3553      C3554   1.434       .  A
C3554      N3555   1.433       .  S
N3555      H3559   1.045       .  S
N3555      H3560   1.046       .  S
N3558      H3561   1.044       .  S
N3558      H3562   1.045       .  S
C3563      C3564   1.412       .  A
C3563      C3568   1.398       .  A
C3563      H3570   1.076       .  S
C3564      C3565   1.435       .  A
C3565      C3566   1.390       .  A
C3565      N3572   1.432       .  S
C3566      C3567   1.385       .  A
C3566      H3571   1.085       .  S
C3567      C3568   1.410       .  A
C3568      N3569   1.438       .  S
N3569      H3573   1.046       .  S
N3569      H3574   1.045       .  S
N3572      H3575   1.046       .  S
N3572      H3576   1.045       .  S
C3577      C3578   1.412       .  A
C3577      C3582   1.391       .  A
C3577      H3584   1.080       .  S
C3578      C3579   1.431       .  A
C3579      C3580   1.392       .  A
C3579      N3586   1.432       .  S
C3580      C3581   1.388       .  A
C3580      H3585   1.085       .  S
C3581      C3582   1.410       .  A
C3582      N3583   1.435       .  S
N3583      H3587   1.045       .  S
N3583      H3588   1.043       .  S
N3586      H3589   1.046       .  S
N3586      H3590   1.046       .  S
C3591      C3592   1.427       .  A
C3591      C3596   1.402       .  A
C3591      H3598   1.081       .  S
C3592      C3593   1.446       .  A
C3593      C3594   1.383       .  A
C3593      N3600   1.434       .  S
C3594      C3595   1.384       .  A
C3594      H3599   1.087       .  S
C3595      C3596   1.393       .  A
C3596      N3597   1.437       .  S
N3597      H3601   1.046       .  S
N3597      H3602   1.045       .  S
N3600      H3603   1.046       .  S
N3600      H3604   1.046       .  S
C3605      C3606   1.418       .  A
C3605      C3610   1.387       .  A
C3605      H3612   1.077       .  S
C3606      C3607   1.417       .  A
C3607      C3608   1.415       .  A
C3607      N3614   1.436       .  S
C3608      C3609   1.408       .  A
C3608      H3613   1.083       .  S
C3609      C3610   1.405       .  A
C3610      N3611   1.442       .  S
N3611      H3615   1.046       .  S
N3611      H3616   1.043       .  S
N3614      H3617   1.044       .  S
N3614      H3618   1.046       .  S
C3619      C3620   1.408       .  A
C3619      C3624   1.407       .  A
C3619      H3626   1.081       .  S
C3620      C3621   1.432       .  A
C3621      C3622   1.387       .  A
C3621      N3628   1.430       .  S
C3622      C3623   1.388       .  A
C3622      H3627   1.085       .  S
C3623      C3624   1.417       .  A
C3624      N3625   1.438       .  S
N3625      H3629   1.046       .  S
N3625      H3630   1.046       .  S
N3628      H3631   1.046       .  S
N3628      H3632   1.046       .  S
C3633      C3634   1.400       .  A
C3633      C3638   1.415       .  A
C3633      H3640   1.080       .  S
C3634      C3635   1.439       .  A
C3635      C3636   1.415       .  A
C3635      N3642   1.432       .  S
C3636      C3637   1.395       .  A
C3636      H3641   1.083       .  S
C3637      C3638   1.430       .  A
C3638      N3639   1.437       .  S
N3639      H3643   1.046       .  S
N3639      H3644   1.046       .  S
N3642      H3645   1.046       .  S
N3642      H3646   1.045       .  S
C3647      C3648   1.409       .  A
C3647      C3652   1.405       .  A
C3647      H3654   1.082       .  S
C3648      C3649   1.444       .  A
C3649      C3650   1.393       .  A
C3649      N3656   1.434       .  S
C3650      C3651   1.384       .  A
C3650      H3655   1.085       .  S
C3651      C3652   1.419       .  A
C3652      N3653   1.439       .  S
N3653      H3657   1.046       .  S
N3653      H3658   1.044       .  S
N3656      H3659   1.045       .  S
N3656      H3660   1.046       .  S
C3661      C3662   1.423       .  A
C3661      C3666   1.392       .  A
C3661      H3668   1.071       .  S
C3662      C3663   1.431       .  A
C3663      C3664   1.403       .  A
C3663      N3670   1.431       .  S
C3664      C3665   1.401       .  A
C3664      H3669   1.081       .  S
C3665      C3666   1.401       .  A
C3666      N3667   1.433       .  S
N3667      H3671   1.044       .  S
N3667      H3672   1.046       .  S
N3670      H3673   1.046       .  S
N3670      H3674   1.046       .  S
C3675      C3676   1.418       .  A
C3675      C3680   1.402       .  A
C3675      H3682   1.080       .  S
C3676      C3677   1.423       .  A
C3677      C3678   1.414       .  A
C3677      N3684   1.432       .  S
C3678      C3679   1.408       .  A
C3678      H3683   1.084       .  S
C3679      C3680   1.412       .  A
C3680      N3681   1.439       .  S
N3681      H3685   1.046       .  S
N3681      H3686   1.041       .  S
N3684      H3687   1.046       .  S
N3684      H3688   1.046       .  S
C3689      C3690   1.399       .  A
C3689      C3694   1.414       .  A
C3689      H3696   1.085       .  S
C3690      C3691   1.406       .  A
C3691      C3692   1.388       .  A
C3691      N3698   1.430       .  S
C3692      C3693   1.418       .  A
C3692      H3697   1.082       .  S
C3693      C3694   1.433       .  A
C3694      N3695   1.428       .  S
N3695      H3699   1.044       .  S
N3695      H3700   1.046       .  S
N3698      H3701   1.046       .  S
N3698      H3702   1.040       .  S
C3703      C3704   1.403       .  A
C3703      C3708   1.405       .  A
C3703      H3710   1.082       .  S
C3704      C3705   1.412       .  A
C3705      C3706   1.403       .  A
C3705      N3712   1.434       .  S
C3706      C3707   1.413       .  A
C3706      H3711   1.083       .  S
C3707      C3708   1.429       .  A
C3708      N3709   1.432       .  S
N3709      H3713   1.046       .  S
N3709      H3714   1.045       .  S
N3712      H3715   1.046       .  S
N3712      H3716   1.046       .  S
C3717      C3718   1.391       .  A
C3717      C3722   1.401       .  A
C3717      H3724   1.084   1_545  S
C3718      C3719   1.404       .  A
C3719      C3720   1.401       .  A
C3719      N3726   1.435       .  S
C3720      C3721   1.419       .  A
C3720      H3725   1.066       .  S
C3721      C3722   1.442       .  A
C3722      N3723   1.433       .  S
N3723      H3727   1.045       .  S
N3723      H3728   1.047   1_545  S
N3726      H3729   1.043       .  S
N3726      H3730   1.046       .  S
C3731      C3732   1.401       .  A
C3731      C3736   1.396       .  A
C3731      H3738   1.084       .  S
C3732      C3733   1.407       .  A
C3733      C3734   1.414       .  A
C3733      N3740   1.434   1_565  S
C3734      C3735   1.420       .  A
C3734      H3739   1.080       .  S
C3735      C3736   1.423       .  A
C3736      N3737   1.433       .  S
N3737      H3741   1.045       .  S
N3737      H3742   1.046       .  S
N3740      H3743   1.046       .  S
N3740      H3744   1.044       .  S
C3745      C3746   1.431       .  A
C3745      C3750   1.379       .  A
C3745      H3752   1.076       .  S
C3746      C3747   1.433       .  A
C3747      C3748   1.409       .  A
C3747      N3754   1.441       .  S
C3748      C3749   1.406       .  A
C3748      H3753   1.084       .  S
C3749      C3750   1.394       .  A
C3750      N3751   1.435       .  S
N3751      H3755   1.045       .  S
N3751      H3756   1.045       .  S
N3754      H3757   1.040       .  S
N3754      H3758   1.044       .  S
C3759      C3760   1.412       .  A
C3759      C3764   1.400       .  A
C3759      H3766   1.082       .  S
C3760      C3761   1.406       .  A
C3761      C3762   1.420       .  A
C3761      N3768   1.436       .  S
C3762      C3763   1.434       .  A
C3762      H3767   1.082       .  S
C3763      C3764   1.422       .  A
C3764      N3765   1.430       .  S
N3765      H3769   1.046       .  S
N3765      H3770   1.046       .  S
N3768      H3771   1.046       .  S
N3768      H3772   1.045       .  S
C3773      C3774   1.387       .  A
C3773      C3778   1.399       .  A
C3773      H3780   1.085       .  S
C3774      C3775   1.408       .  A
C3775      C3776   1.394       .  A
C3775      N3782   1.439       .  S
C3776      C3777   1.414       .  A
C3776      H3781   1.083       .  S
C3777      C3778   1.443       .  A
C3778      N3779   1.432       .  S
N3779      H3783   1.046       .  S
N3779      H3784   1.046       .  S
N3782      H3785   1.045       .  S
N3782      H3786   1.046       .  S
C3787      C3788   1.409       .  A
C3787      C3792   1.422       .  A
C3787      H3794   1.084       .  S
C3788      C3789   1.409       .  A
C3789      C3790   1.398       .  A
C3789      N3796   1.434       .  S
C3790      C3791   1.429       .  A
C3790      H3795   1.080       .  S
C3791      C3792   1.428       .  A
C3792      N3793   1.426       .  S
N3793      H3797   1.046       .  S
N3793      H3798   1.046       .  S
N3796      H3799   1.046       .  S
N3796      H3800   1.042       .  S
C3801      C3802   1.406       .  A
C3801      C3806   1.420       .  A
C3801      H3808   1.084       .  S
C3802      C3803   1.421       .  A
C3803      C3804   1.406       .  A
C3803      N3810   1.434   1_455  S
C3804      C3805   1.419       .  A
C3804      H3809   1.084       .  S
C3805      C3806   1.433       .  A
C3806      N3807   1.430       .  S
N3807      H3811   1.046       .  S
N3807      H3812   1.046       .  S
N3810      H3813   1.046       .  S
N3810      H3814   1.042       .  S
C3815      C3816   1.388       .  A
C3815      C3820   1.390       .  A
C3815      H3822   1.085       .  S
C3816      C3817   1.414       .  A
C3817      C3818   1.417       .  A
C3817      N3824   1.436       .  S
C3818      C3819   1.420       .  A
C3818      H3823   1.082       .  S
C3819      C3820   1.443       .  A
C3820      N3821   1.428       .  S
N3821      H3825   1.041       .  S
N3821      H3826   1.042       .  S
N3824      H3827   1.044       .  S
N3824      H3828   1.046       .  S
C3829      C3830   1.396       .  A
C3829      C3834   1.391       .  A
C3829      H3836   1.084       .  S
C3830      C3831   1.407       .  A
C3831      C3832   1.396       .  A
C3831      N3838   1.439       .  S
C3832      C3833   1.414       .  A
C3832      H3837   1.078       .  S
C3833      C3834   1.425       .  A
C3834      N3835   1.435       .  S
N3835      H3839   1.046       .  S
N3835      H3840   1.045       .  S
N3838      H3841   1.045       .  S
N3838      H3842   1.046       .  S
C3843      C3844   1.400       .  A
C3843      C3848   1.400       .  A
C3843      H3850   1.084   1_554  S
C3844      C3845   1.408       .  A
C3845      C3846   1.401       .  A
C3845      N3852   1.433       .  S
C3846      C3847   1.424       .  A
C3846      H3851   1.080       .  S
C3847      C3848   1.428       .  A
C3848      N3849   1.432       .  S
N3849      H3853   1.046       .  S
N3849      H3854   1.044       .  S
N3852      H3855   1.040       .  S
N3852      H3856   1.045       .  S
C3857      C3858   1.410       .  A
C3857      C3862   1.396       .  A
C3857      H3864   1.078       .  S
C3858      C3859   1.411       .  A
C3859      C3860   1.399       .  A
C3859      N3866   1.431   1_455  S
C3860      C3861   1.423       .  A
C3860      H3865   1.083       .  S
C3861      C3862   1.413       .  A
C3862      N3863   1.431       .  S
N3863      H3867   1.045       .  S
N3863      H3868   1.046       .  S
N3866      H3869   1.045       .  S
N3866      H3870   1.043       .  S
C3871      C3872   1.402       .  A
C3871      C3876   1.418       .  A
C3871      H3878   1.084       .  S
C3872      C3873   1.411       .  A
C3873      C3874   1.397       .  A
C3873      N3880   1.432       .  S
C3874      C3875   1.417       .  A
C3874      H3879   1.081       .  S
C3875      C3876   1.434       .  A
C3876      N3877   1.430       .  S
N3877      H3881   1.045       .  S
N3877      H3882   1.046       .  S
N3880      H3883   1.045       .  S
N3880      H3884   1.039       .  S
C3885      C3886   1.417       .  A
C3885      C3890   1.427       .  A
C3885      H3892   1.082       .  S
C3886      C3887   1.434       .  A
C3887      C3888   1.398       .  A
C3887      N3894   1.427       .  S
C3888      C3889   1.406       .  A
C3888      H3893   1.081       .  S
C3889      C3890   1.430       .  A
C3890      N3891   1.430       .  S
N3891      H3895   1.045       .  S
N3891      H3896   1.045       .  S
N3894      H3897   1.044       .  S
N3894      H3898   1.040   1_554  S
C3899      C3900   1.406       .  A
C3899      C3904   1.398       .  A
C3899      H3906   1.083       .  S
C3900      C3901   1.426       .  A
C3901      C3902   1.423       .  A
C3901      N3908   1.432       .  S
C3902      C3903   1.418       .  A
C3902      H3907   1.080       .  S
C3903      C3904   1.423       .  A
C3904      N3905   1.433       .  S
N3905      H3909   1.046       .  S
N3905      H3910   1.046       .  S
N3908      H3911   1.046       .  S
N3908      H3912   1.042       .  S
C3913      C3914   1.409       .  A
C3913      C3918   1.395       .  A
C3913      H3920   1.073       .  S
C3914      C3915   1.449       .  A
C3915      C3916   1.392       .  A
C3915      N3922   1.429       .  S
C3916      C3917   1.383       .  A
C3916      H3921   1.085       .  S
C3917      C3918   1.403       .  A
C3918      N3919   1.429       .  S
N3919      H3923   1.046       .  S
N3919      H3924   1.045       .  S
N3922      H3925   1.041       .  S
N3922      H3926   1.042       .  S
C3927      C3928   1.390       .  A
C3927      C3932   1.398       .  A
C3927      H3934   1.084       .  S
C3928      C3929   1.405       .  A
C3929      C3930   1.388       .  A
C3929      N3936   1.428       .  S
C3930      C3931   1.409       .  A
C3930      H3935   1.080       .  S
C3931      C3932   1.433       .  A
C3932      N3933   1.434       .  S
N3933      H3937   1.045       .  S
N3933      H3938   1.046       .  S
N3936      H3939   1.046       .  S
N3936      H3940   1.040       .  S
C3941      C3942   1.399       .  A
C3941      C3946   1.423       .  A
C3941      H3948   1.084       .  S
C3942      C3943   1.423       .  A
C3943      C3944   1.396       .  A
C3943      N3950   1.430       .  S
C3944      C3945   1.410       .  A
C3944      H3949   1.083       .  S
C3945      C3946   1.445       .  A
C3946      N3947   1.431       .  S
N3947      H3951   1.046       .  S
N3947      H3952   1.046       .  S
N3950      H3953   1.046       .  S
N3950      H3954   1.041       .  S
C3955      C3956   1.437       .  A
C3955      C3960   1.410       .  A
C3955      H3962   1.064       .  S
C3956      C3957   1.448       .  A
C3957      C3958   1.405       .  A
C3957      N3964   1.436       .  S
C3958      C3959   1.406       .  A
C3958      H3963   1.082       .  S
C3959      C3960   1.392       .  A
C3960      N3961   1.438       .  S
N3961      H3965   1.045       .  S
N3961      H3966   1.046       .  S
N3964      H3967   1.039       .  S
N3964      H3968   1.045       .  S
C3969      C3970   1.421       .  A
C3969      C3974   1.411       .  A
C3969      H3976   1.079       .  S
C3970      C3971   1.445       .  A
C3971      C3972   1.405       .  A
C3971      N3978   1.440       .  S
C3972      C3973   1.401       .  A
C3972      H3977   1.085       .  S
C3973      C3974   1.407       .  A
C3974      N3975   1.428       .  S
N3975      H3979   1.046       .  S
N3975      H3980   1.043       .  S
N3978      H3981   1.034       .  S
N3978      H3982   1.046       .  S
C3983      C3984   1.383       .  A
C3983      C3988   1.406       .  A
C3983      H3990   1.084       .  S
C3984      C3985   1.423       .  A
C3985      C3986   1.404       .  A
C3985      N3992   1.428       .  S
C3986      C3987   1.397       .  A
C3986      H3991   1.076       .  S
C3987      C3988   1.450       .  A
C3988      N3989   1.431       .  S
N3989      H3993   1.046       .  S
N3989      H3994   1.046       .  S
N3992      H3995   1.046       .  S
N3992      H3996   1.046       .  S
C3997      C3998   1.394       .  A
C3997      C4002   1.408       .  A
C3997      H4004   1.084       .  S
C3998      C3999   1.422       .  A
C3999      C4000   1.395       .  A
C3999      N4006   1.432       .  S
C4000      C4001   1.403       .  A
C4000      H4005   1.077       .  S
C4001      C4002   1.438       .  A
C4002      N4003   1.433       .  S
N4003      H4007   1.046       .  S
N4003      H4008   1.046       .  S
N4006      H4009   1.046       .  S
N4006      H4010   1.046       .  S
C4011      C4012   1.406       .  A
C4011      C4016   1.405       .  A
C4011      H4018   1.085       .  S
C4012      C4013   1.399       .  A
C4013      C4014   1.391       .  A
C4013      N4020   1.440       .  S
C4014      C4015   1.431       .  A
C4014      H4019   1.079       .  S
C4015      C4016   1.430       .  A
C4016      N4017   1.438       .  S
N4017      H4021   1.045       .  S
N4017      H4022   1.034       .  S
N4020      H4023   1.040       .  S
N4020      H4024   1.046       .  S
C4025      C4026   1.406       .  A
C4025      C4030   1.422       .  A
C4025      H4032   1.082       .  S
C4026      C4027   1.401       .  A
C4027      C4028   1.393       .  A
C4027      N4034   1.439       .  S
C4028      C4029   1.403       .  A
C4028      H4033   1.058       .  S
C4029      C4030   1.433       .  A
C4030      N4031   1.438       .  S
N4031      H4035   1.046       .  S
N4031      H4036   1.044       .  S
N4034      H4037   1.045       .  S
N4034      H4038   1.046       .  S
C4039      C4040   1.399       .  A
C4039      C4044   1.404       .  A
C4039      H4046   1.085       .  S
C4040      C4041   1.397       .  A
C4041      C4042   1.386       .  A
C4041      N4048   1.433       .  S
C4042      C4043   1.426       .  A
C4042      H4047   1.083       .  S
C4043      C4044   1.427       .  A
C4044      N4045   1.429       .  S
N4045      H4049   1.046       .  S
N4045      H4050   1.046       .  S
N4048      H4051   1.045       .  S
N4048      H4052   1.045       .  S
C4053      C4054   1.387       .  A
C4053      C4058   1.394       .  A
C4053      H4060   1.085       .  S
C4054      C4055   1.414       .  A
C4055      C4056   1.394       .  A
C4055      N4062   1.432       .  S
C4056      C4057   1.412       .  A
C4056      H4061   1.079       .  S
C4057      C4058   1.446       .  A
C4058      N4059   1.440       .  S
N4059      H4063   1.046       .  S
N4059      H4064   1.029       .  S
N4062      H4065   1.044       .  S
N4062      H4066   1.045       .  S
C4067      C4068   1.398       .  A
C4067      C4072   1.394       .  A
C4067      H4074   1.085       .  S
C4068      C4069   1.408       .  A
C4069      C4070   1.404       .  A
C4069      N4076   1.439       .  S
C4070      C4071   1.425       .  A
C4070      H4075   1.078       .  S
C4071      C4072   1.427       .  A
C4072      N4073   1.433       .  S
N4073      H4077   1.046       .  S
N4073      H4078   1.045       .  S
N4076      H4079   1.043       .  S
N4076      H4080   1.046       .  S
