geometry optimzed in LAMMPS
_audit_creation_date              2020-11-30 
_audit_creation_method            'lammps2cif' 
_symmetry_space_group_name_H-M    'P1' 
_symmetry_Int_Tables_number       1 
_symmetry_cell_setting            triclinic 
loop_ 
_symmetry_equiv_pos_as_xyz 
  x,y,z 
_cell_length_a                    30.21494015 
_cell_length_b                    30.77096829641556 
_cell_length_c                    30.65787080003018 
_cell_angle_alpha                 94.23273682181309 
_cell_angle_beta                  82.89350340059443 
_cell_angle_gamma                 90.762621414678 
loop_ 
_atom_site_label 
_atom_site_type_symbol 
_atom_site_fract_x 
_atom_site_fract_y 
_atom_site_fract_z 
_atom_site_charge 
O1          O  0.62284713  0.98337589  0.49882641    -0.78500
O2          O  0.43283043  0.94293837  0.54233032    -0.78600
O3          O  0.53957474  0.99204944  0.62929135    -0.78600
O4          O  0.49444983  0.96386692  0.45339540    -0.78500
O5          O  0.48976992  0.94431724  0.61040064    -0.78600
O6          O  0.56422482  0.97853588  0.43673518    -0.78600
O7          O  0.42098794  0.98843430  0.49240857    -0.78500
O8          O  0.58974716  0.96219365  0.55943026    -0.78600
C9          C  0.62312080  0.96035453  0.53067953     1.11200
C10         C  0.41185195  0.95319747  0.51099023     1.11000
C11         C  0.51712859  0.95798055  0.63667141     1.11200
C12         C  0.52930972  0.95890123  0.42746986     1.11100
O13         O  0.53154171  0.06441817  0.46633675    -0.78500
O14         O  0.46986563  0.03493409  0.63068907    -0.78600
O15         O  0.60483617  0.04196219  0.59522342    -0.78600
O16         O  0.45771902  0.07217500  0.52270035    -0.78500
O17         O  0.41323557  0.03256192  0.56482884    -0.78600
O18         O  0.59770979  0.06947262  0.53149668    -0.78500
O19         O  0.47341209  0.04500342  0.43347744    -0.78500
O20         O  0.52135851  0.07097747  0.59202727    -0.78600
Co21       Co  0.57188247  0.02122740  0.48891659     1.51500
Co22       Co  0.45629684  0.98907495  0.58308799     1.51700
Co23       Co  0.55558807  0.01721420  0.57198522     1.51600
Co24       Co  0.48092712  0.01859233  0.48809330     1.51500
O25         O  0.51242292  0.99673328  0.53475278    -1.40500
C26         C  0.51382936  0.05840810  0.43017724     1.11100
C27         C  0.49523594  0.06787620  0.62724922     1.11200
C28         C  0.61979506  0.06577277  0.56500219     1.11100
C29         C  0.41912447  0.06524879  0.54169112     1.11100
O30         O  0.03495107  0.61205505  0.50416913    -0.78500
O31         O  0.97367947  0.45209994  0.45791157    -0.78600
O32         O  0.98900858  0.58343150  0.39055321    -0.78600
O33         O  0.97702395  0.50871280  0.52763531    -0.78500
O34         O  0.98074754  0.51075503  0.38138977    -0.78600
O35         O  0.02482920  0.54945653  0.56010271    -0.78600
O36         O  0.99261062  0.41996491  0.51448535    -0.78500
O37         O  0.97971489  0.57846343  0.47745415    -0.78600
C38         C  0.99430093  0.61109971  0.49904448     1.11200
C39         C  0.97510500  0.41710189  0.47843702     1.11000
C40         C  0.97283993  0.55036158  0.37128988     1.11200
C41         C  0.98683713  0.53080262  0.56138843     1.11100
O42         O  0.11149732  0.51497520  0.52484906    -0.78500
O43         O  0.06792546  0.47481133  0.35891790    -0.78600
O44         O  0.06433184  0.60621456  0.42765173    -0.78600
O45         O  0.07959296  0.43548372  0.48241286    -0.78500
O46         O  0.05711804  0.41458904  0.42029772    -0.78600
O47         O  0.11812464  0.58101376  0.46189550    -0.78500
O48         O  0.05770985  0.47677314  0.55746290    -0.78500
O49         O  0.06651965  0.54479929  0.37129881    -0.78600
Co50       Co  0.07216189  0.56047593  0.50843160     1.51500
Co51       Co  0.02276027  0.46867070  0.41066372     1.51700
Co52       Co  0.02275186  0.55548051  0.42617322     1.51600
Co53       Co  0.02743664  0.47185738  0.50105295     1.51500
O54         O  0.05154653  0.51535160  0.45958150    -1.40500
C55         C  0.09465351  0.49708501  0.55916742     1.11100
C56         C  0.07857328  0.51164303  0.34634387     1.11200
C57         C  0.10404573  0.60843265  0.43764460     1.11100
C58         C  0.07820358  0.40678297  0.45183643     1.11100
O59         O  0.39042759  0.48007358  0.06391070    -0.78500
O60         O  0.56961003  0.41673624  0.02110691    -0.78600
O61         O  0.44765006  0.40327211  0.07372320    -0.78600
O62         O  0.47412137  0.52311449  0.08615948    -0.78500
O63         O  0.49458738  0.36458526  0.02534888    -0.78600
O64         O  0.43312450  0.55415061  0.04439953    -0.78600
O65         O  0.54442620  0.46315307  0.07687918    -0.78500
O66         O  0.36319737  0.41527296  0.04794437    -0.78600
C67         C  0.35727829  0.45351949  0.06613821     1.11200
C68         C  0.57219576  0.43439635  0.05927915     1.11000
C69         C  0.46781752  0.36787434  0.06146744     1.11200
C70         C  0.45314779  0.55627663  0.07850646     1.11100
O71         O  0.46272910  0.52276831  0.95616535    -0.78500
O72         O  0.47926505  0.39405525  0.93938690    -0.78600
O73         O  0.39724501  0.44863055  0.97103706    -0.78600
O74         O  0.57505967  0.49525955  0.99430246    -0.78500
O75         O  0.55282203  0.45018668  0.94140764    -0.78600
O76         O  0.37253304  0.51515421  0.98877099    -0.78500
O77         O  0.50790549  0.55505038  0.00012368    -0.78500
O78         O  0.42703169  0.37211909  0.98847404    -0.78600
Co79       Co  0.42841092  0.49749914  0.00696272     1.51500
Co80       Co  0.52115360  0.40984728  0.98293209     1.51700
Co81       Co  0.42389146  0.42934709  0.02520006     1.51600
Co82       Co  0.52248080  0.50620110  0.03888870     1.51500
O83         O  0.48243650  0.46041048  0.01243584    -1.40500
C84         C  0.48592810  0.55558972  0.96686271     1.11100
C85         C  0.44854056  0.36740046  0.95037033     1.11200
C86         C  0.36690234  0.47730796  0.97044247     1.11100
C87         C  0.58031045  0.47808387  0.95511526     1.11100
C88         C  0.57142847  0.95349342  0.82324159     0.81800
N89         N  0.56023187  0.96961256  0.78593400    -0.76500
C90         C  0.54876092  0.94227464  0.75209312     0.84300
N91         N  0.54809201  0.89873266  0.75586423    -0.76400
C92         C  0.55871835  0.88238780  0.79300693     0.84400
N93         N  0.57067566  0.90957792  0.82655873    -0.78100
C94         C  0.64388108  0.70619117  0.71828603     0.81800
N95         N  0.65471776  0.66565202  0.72785414    -0.76500
C96         C  0.69140076  0.64561129  0.70562052     0.84300
N97         N  0.71802085  0.66677639  0.67517715    -0.76400
C98         C  0.70729586  0.70731846  0.66567997     0.84400
N99         N  0.67061217  0.72729186  0.68770809    -0.78100
C100        C  0.97060957  0.80176211  0.57305785     0.81800
N101        N  0.98975193  0.76378402  0.55505555    -0.76500
C102        C  0.96466691  0.72737673  0.54857022     0.84300
N103        N  0.91992932  0.72910342  0.55992087    -0.76400
C104        C  0.90045827  0.76691550  0.57770809     0.84400
N105        N  0.92563330  0.80323100  0.58430663    -0.78100
C106        C  0.77048605  0.55020687  0.92514811     0.81800
N107        N  0.73167376  0.53494070  0.94569549    -0.76500
C108        C  0.69769132  0.52244528  0.92244488     0.84300
N109        N  0.70255374  0.52512317  0.87827268    -0.76400
C110        C  0.74129573  0.54002034  0.85738432     0.84400
N111        N  0.77525844  0.55286018  0.88069114    -0.78100
C112        C  0.25592703  0.11449209  0.72151151     0.81800
N113        N  0.24936731  0.14086773  0.75909345    -0.76500
C114        C  0.24053083  0.18361450  0.75718607     0.84300
N115        N  0.23906077  0.20026051  0.71773432    -0.76400
C116        C  0.24625976  0.17403676  0.68009251     0.84400
N117        N  0.25482315  0.13108963  0.68186515    -0.78100
C118        C  0.27334401  0.39987185  0.94092452     0.81800
N119        N  0.23606295  0.41539037  0.96637838    -0.76500
C120        C  0.19665316  0.39320925  0.96712296     0.84300
N121        N  0.19475062  0.35524861  0.94199136    -0.76400
C122        C  0.23205614  0.33924577  0.91731784     0.84400
N123        N  0.27118554  0.36130681  0.91696998    -0.78100
C124        C  0.46061859  0.01928122  0.79948835     0.81800
N125        N  0.48538809  0.04722102  0.77345389    -0.76500
C126        C  0.47480240  0.05467690  0.73253680     0.84300
N127        N  0.43749030  0.03597897  0.71928877    -0.76400
C128        C  0.41213036  0.00890438  0.74524631     0.84400
N129        N  0.42348883  0.00086394  0.78534075    -0.78100
C130        C  0.10160758  0.30498527  0.51030294     0.81800
N131        N  0.14215501  0.29402208  0.52090780    -0.76500
C132        C  0.14719320  0.25588769  0.53913449     0.84300
N133        N  0.11175485  0.22955804  0.54823273    -0.76400
C134        C  0.07081741  0.24024185  0.53910878     0.84400
N135        N  0.06567727  0.27829545  0.52009036    -0.78100
O136        O  0.56142932  0.94485556  0.96487288    -0.78500
O137        O  0.56353077  0.01101411  0.09416100    -0.78600
O138        O  0.49612249  0.07966507  0.99514145    -0.78600
O139        O  0.47451993  0.88349051  0.08842938    -0.78500
O140        O  0.54477064  0.07844046  0.04249212    -0.78600
O141        O  0.53288406  0.89596657  0.03915326    -0.78600
O142        O  0.52602722  0.95151699  0.11208684    -0.78500
O143        O  0.53901639  0.00928553  0.94943345    -0.78600
C144        C  0.56537510  0.97667782  0.94111665     1.11200
C145        C  0.55807201  0.97843266  0.11683247     1.11000
C146        C  0.52662820  0.09810899  0.01426045     1.11200
C147        C  0.51085006  0.87033349  0.06653266     1.11100
O148        O  0.49479122  0.88177542  0.96779036    -0.78500
O149        O  0.45389172  0.07249125  0.07855931    -0.78600
O150        O  0.45427748  0.02934481  0.93916534    -0.78600
O151        O  0.43189997  0.96333147  0.10478671    -0.78500
O152        O  0.47309498  0.01222168  0.13692312    -0.78600
O153        O  0.47380006  0.95970271  0.94172873    -0.78500
O154        O  0.44191149  0.90837339  0.01984988    -0.78500
O155        O  0.42172000  0.03385326  0.02661500    -0.78600
Co156      Co  0.50314241  0.93606979  0.99693458     1.51500
Co157      Co  0.50886610  0.04040266  0.08487308     1.51700
Co158      Co  0.47910267  0.01782059  0.98943275     1.51600
Co159      Co  0.48288152  0.93820764  0.06530388     1.51500
O160        O  0.50153147  0.99255652  0.03633357    -1.40500
C161        C  0.45707039  0.87705999  0.99041379     1.11100
C162        C  0.42136167  0.06515795  0.05647326     1.11200
C163        C  0.45889136  0.99125902  0.92079796     1.11100
C164        C  0.44225749  0.98338328  0.13955884     1.11100
C165        C  0.26732313  0.77225035  0.79521287     0.81800
N166        N  0.23251552  0.75304101  0.77738524    -0.76500
C167        C  0.21260857  0.77323493  0.74724142     0.84300
N168        N  0.22777177  0.81249313  0.73454858    -0.76400
C169        C  0.26255661  0.83185854  0.75249049     0.84400
N170        N  0.28267685  0.81163305  0.78258089    -0.78100
C171        C  0.44612518  0.75286215  0.96809996     0.81800
N172        N  0.47079103  0.71721458  0.97398909    -0.76500
C173        C  0.45964929  0.67661135  0.95726611     0.84300
N174        N  0.42396298  0.67228296  0.93408694    -0.76400
C175        C  0.39954415  0.70775398  0.92844628     0.84400
N176        N  0.41070767  0.74765043  0.94532466    -0.78100
C177        C  0.23824464  0.98206704  0.56374140     0.81800
N178        N  0.25109486  0.98325822  0.60460947    -0.76500
C179        C  0.29182554  0.96803831  0.61036191     0.84300
N180        N  0.32005617  0.95192204  0.57521109    -0.76400
C181        C  0.30774617  0.95041255  0.53414910     0.84400
N182        N  0.26593610  0.96364247  0.52893169    -0.78100
C183        C  0.06315517  0.56031129  0.75647357     0.81800
N184        N  0.07055819  0.52818094  0.72291340    -0.76500
C185        C  0.08699481  0.53814613  0.68110748     0.84300
N186        N  0.09705659  0.58040735  0.67377593    -0.76400
C187        C  0.09001774  0.61214780  0.70701060     0.84400
N188        N  0.07314324  0.60208787  0.74808051    -0.78100
C189        C  0.80100994  0.19505632  0.17066752     0.81800
N190        N  0.83657893  0.21253353  0.18875145    -0.76500
C191        C  0.85486316  0.19125533  0.21925186     0.84300
N192        N  0.83703342  0.15304206  0.23241002    -0.76400
C193        C  0.80157729  0.13557133  0.21432016     0.84400
N194        N  0.78314116  0.15683262  0.18382826    -0.78100
C195        C  0.02850356  0.22937797  0.41660073     0.81800
N196        N  0.02100304  0.26593099  0.44408426    -0.76500
C197        C  0.99407407  0.29807999  0.43451411     0.84300
N198        N  0.97473464  0.29355908  0.39667607    -0.76400
C199        C  0.98223179  0.25711461  0.36904442     0.84400
N200        N  0.00863364  0.22500939  0.37919882    -0.78100
C201        C  0.77338548  0.41741216  0.03853153     0.81800
N202        N  0.73324703  0.43789771  0.04316789    -0.76500
C203        C  0.69535522  0.41757302  0.06005155     0.84300
N204        N  0.69778044  0.37614863  0.07215583    -0.76400
C205        C  0.73776843  0.35550028  0.06731706     0.84400
N206        N  0.77546891  0.37612417  0.05073734    -0.78100
C207        C  0.57661291  0.99305511  0.23687971     0.81800
N208        N  0.54713640  0.00643609  0.27263560    -0.76500
C209        C  0.56181000  0.02642597  0.30947373     0.84300
N210        N  0.60633540  0.03275012  0.31015410    -0.76400
C211        C  0.63562895  0.01907757  0.27477953     0.84400
N212        N  0.62074338  0.99990649  0.23816495    -0.78100
O213        O  0.89568150  0.51304095  0.93449558    -0.78500
O214        O  0.07658714  0.53856203  0.97139263    -0.78600
O215        O  0.97806861  0.58758774  0.03408504    -0.78600
O216        O  0.03443641  0.54951956  0.90034025    -0.78500
O217        O  0.02901894  0.54427597  0.05397411    -0.78600
O218        O  0.96983092  0.52803847  0.88355149    -0.78600
O219        O  0.10040706  0.49659600  0.91147610    -0.78500
O220        O  0.90945442  0.57231075  0.97703198    -0.78600
C221        C  0.88731873  0.55221504  0.94875597     1.11200
C222        C  0.10835327  0.52580890  0.94146636     1.11000
C223        C  0.00671786  0.57981825  0.05960162     1.11200
C224        C  0.00519934  0.54998896  0.87490713     1.11100
O225        O  0.94286168  0.44536844  0.88244224    -0.78500
O226        O  0.99230787  0.45755117  0.03886823    -0.78600
O227        O  0.89017160  0.49307075  0.01646625    -0.78600
O228        O  0.05035862  0.44000704  0.96072539    -0.78500
O229        O  0.08115332  0.46824314  0.01874691    -0.78600
O230        O  0.92745513  0.44133227  0.97316895    -0.78500
O231        O  0.01704275  0.45931271  0.87456566    -0.78500
O232        O  0.95259326  0.50965123  0.07540404    -0.78600
Co233      Co  0.95372799  0.48343172  0.93010174     1.51500
Co234      Co  0.03124325  0.49792735  0.00319512     1.51700
Co235      Co  0.93514138  0.54020002  0.02277567     1.51600
Co236      Co  0.03732682  0.49647960  0.93186095     1.51500
O237        O  0.98130735  0.51581014  0.97381094    -1.40500
C238        C  0.98079635  0.44328433  0.85907240     1.11100
C239        C  0.97351998  0.47402111  0.07522400     1.11200
C240        C  0.89369876  0.45379712  0.00033580     1.11100
C241        C  0.08000810  0.43818725  0.98785642     1.11100
C242        C  0.24117524  0.05005247  0.46219160     0.81800
N243        N  0.27721490  0.04107504  0.48271320    -0.76500
C244        C  0.30486604  0.07348170  0.49653651     0.84300
N245        N  0.29561068  0.11565523  0.49029110    -0.76400
C246        C  0.25919553  0.12474319  0.47036491     0.84400
N247        N  0.23244384  0.09213540  0.45656524    -0.78100
C248        C  0.19447572  0.26695156  0.28647389     0.81800
N249        N  0.20609137  0.25711033  0.32576646    -0.76500
C250        C  0.17617463  0.26130935  0.36257323     0.84300
N251        N  0.13396658  0.27505076  0.36005768    -0.76400
C252        C  0.12236816  0.28486825  0.32038832     0.84400
N253        N  0.15267691  0.28083972  0.28379288    -0.78100
C254        C  0.00732174  0.46729919  0.19340829     0.81800
N255        N  0.03781549  0.49446936  0.21100534    -0.76500
C256        C  0.05600877  0.48490494  0.24784663     0.84300
N257        N  0.04388897  0.44761513  0.26660326    -0.76400
C258        C  0.01430835  0.41989254  0.24930506     0.84400
N259        N  0.99630705  0.42921606  0.21232568    -0.78100
C260        C  0.39230359  0.18123152  0.06338881     0.81800
N261        N  0.42215201  0.21357133  0.05272778    -0.76500
C262        C  0.41843203  0.25369953  0.07474823     0.84300
N263        N  0.38371884  0.26163899  0.10684960    -0.76400
C264        C  0.35353367  0.22978607  0.11720223     0.84400
N265        N  0.35807238  0.18948629  0.09592333    -0.78100
C266        C  0.74274381  0.36082279  0.79037770     0.81800
N267        N  0.72499993  0.36204803  0.83320075    -0.76500
C268        C  0.71880504  0.32450842  0.85367234     0.84300
N269        N  0.73018155  0.28567942  0.83122400    -0.76400
C270        C  0.74859591  0.28472178  0.78845204     0.84400
N271        N  0.75490518  0.32231070  0.76819904    -0.78100
C272        C  0.95905488  0.50447885  0.68107107     0.81800
N273        N  0.98552458  0.49028600  0.71031059    -0.76500
C274        C  0.96772507  0.46699600  0.74464274     0.84300
N275        N  0.92308569  0.45942659  0.74992896    -0.76400
C276        C  0.89678579  0.47422362  0.72146648     0.84400
N277        N  0.91470063  0.49617902  0.68696228    -0.78100
C278        C  0.48409782  0.27290000  0.94296873     0.81800
N279        N  0.48253860  0.23021351  0.95198081    -0.76500
C280        C  0.51530934  0.21239403  0.97169930     0.84300
N281        N  0.55073311  0.23730068  0.98115589    -0.76400
C282        C  0.55291946  0.27978904  0.97163581     0.84400
N283        N  0.51997494  0.29735052  0.95209635    -0.78100
C284        C  0.73816750  0.07102943  0.59437736     0.81800
N285        N  0.74041011  0.10590941  0.62383532    -0.76500
C286        C  0.77732006  0.11245898  0.64479543     0.84300
N287        N  0.81210924  0.08425103  0.63618893    -0.76400
C288        C  0.80984372  0.04901523  0.60697996     0.84400
N289        N  0.77261380  0.04248182  0.58675134    -0.78100
C290        C  0.73547020  0.85317426  0.25831230     0.81800
N291        N  0.70031035  0.82958115  0.24566391    -0.76500
C292        C  0.70632115  0.78741445  0.22982035     0.84300
N293        N  0.74697589  0.76893529  0.22705659    -0.76400
C294        C  0.78186908  0.79231788  0.23994429     0.84400
N295        N  0.77616871  0.83435220  0.25596556    -0.78100
C296        C  0.72849666  0.97114254  0.49363508     0.81800
N297        N  0.76905807  0.98887993  0.50036239    -0.76500
C298        C  0.79624660  0.00604764  0.46690708     0.84300
N299        N  0.78308477  0.00431016  0.42609812    -0.76400
C300        C  0.74261875  0.98717506  0.41920773     0.84400
N301        N  0.71584704  0.97002881  0.45267650    -0.78100
C302        C  0.97230927  0.58677440  0.25655232     0.81800
N303        N  0.94329975  0.62059736  0.26229155    -0.76500
C304        C  0.93976449  0.64607375  0.22857520     0.84300
N305        N  0.96444820  0.63749700  0.18890735    -0.76400
C306        C  0.99378174  0.60398989  0.18278548     0.84400
N307        N  0.99796468  0.57916802  0.21698948    -0.78100
C308        C  0.48511670  0.67596075  0.09771245     0.81800
N309        N  0.47827264  0.71505354  0.08131487    -0.76500
C310        C  0.50519640  0.74985109  0.08962680     0.84300
N311        N  0.53855789  0.74543086  0.11440897    -0.76400
C312        C  0.54529072  0.70707072  0.13120707     0.84400
N313        N  0.51871229  0.67226794  0.12306040    -0.78100
C314        C  0.32011250  0.75527005  0.20395798     0.81800
N315        N  0.31147026  0.73997100  0.16336505    -0.76500
C316        C  0.34533277  0.72629269  0.13242315     0.84300
N317        N  0.38788987  0.72704499  0.14225694    -0.76400
C318        C  0.39636625  0.74189341  0.18314269     0.84400
N319        N  0.36253634  0.75621009  0.21387589    -0.78100
C320        C  0.48429248  0.93162531  0.31747918     0.81800
N321        N  0.49872618  0.89200839  0.29952548    -0.76500
C322        C  0.49197845  0.87917831  0.25769109     0.84300
N323        N  0.47051574  0.90566211  0.23379373    -0.76400
C324        C  0.45630568  0.94574487  0.25096099     0.84400
N325        N  0.46324310  0.95858566  0.29311076    -0.78100
C326        C  0.11775379  0.72811974  0.41989816     0.81800
N327        N  0.09209480  0.76279273  0.43614581    -0.76500
C328        C  0.09660537  0.80132003  0.41730821     0.84300
N329        N  0.12776502  0.80547450  0.38195393    -0.76400
C330        C  0.15373622  0.77083549  0.36559084     0.84400
N331        N  0.14869042  0.73211466  0.38438793    -0.78100
C332        C  0.25778830  0.50162802  0.04125694     0.81800
N333        N  0.27452040  0.54255213  0.04638762    -0.76500
C334        C  0.26132723  0.57472467  0.02295338     0.84300
N335        N  0.23167130  0.56626393  0.99356754    -0.76400
C336        C  0.21507601  0.52531206  0.98782844     0.84400
N337        N  0.22811417  0.49348393  0.01189668    -0.78100
O338        O  0.06197157  0.91674856  0.49007173    -0.78500
O339        O  0.01254753  0.09128247  0.45636082    -0.78600
O340        O  0.95772727  0.00776919  0.44702549    -0.78600
O341        O  0.09139482  0.02501909  0.44327570    -0.78500
O342        O  0.92599701  0.05779280  0.49182689    -0.78600
O343        O  0.12354251  0.98231390  0.48414808    -0.78600
O344        O  0.08123831  0.11252352  0.46834120    -0.78500
O345        O  0.02145494  0.94164486  0.44232150    -0.78600
C346        C  0.04896081  0.91432174  0.45225721     1.11200
C347        C  0.04671837  0.11662174  0.44880357     1.11000
C348        C  0.92297999  0.02988029  0.46050625     1.11200
C349        C  0.12597681  0.00560918  0.45114205     1.11100
O350        O  0.09240468  0.01304684  0.57364232    -0.78500
O351        O  0.96012117  0.04918291  0.57127892    -0.78600
O352        O  0.98387274  0.92068245  0.52878558    -0.78600
O353        O  0.04791411  0.09641155  0.55306588    -0.78500
O354        O  0.98848271  0.12385064  0.53682273    -0.78600
O355        O  0.02736917  0.94590924  0.57773924    -0.78500
O356        O  0.12145566  0.05686853  0.52481846    -0.78500
O357        O  0.92912678  0.99119384  0.53992339    -0.78600
Co358      Co  0.07273487  0.96765183  0.53116219     1.51500
Co359      Co  0.98545040  0.06307734  0.51260142     1.51700
Co360      Co  0.97724887  0.96864365  0.49027906     1.51600
Co361      Co  0.06457751  0.05986468  0.49614654     1.51500
O362        O  0.02624164  0.00943902  0.51312973    -1.40500
C363        C  0.12503875  0.03601474  0.55851392     1.11100
C364        C  0.92929180  0.02108555  0.57156510     1.11200
C365        C  0.99815515  0.91908663  0.56565644     1.11100
C366        C  0.02323068  0.12927798  0.55435532     1.11100
C367        C  0.07147741  0.83887290  0.43968256    -0.14800
C368        C  0.06488016  0.87668281  0.42195320    -0.30000
H369        H  0.05930008  0.83570229  0.47419107     0.14200
H370        H  0.07352939  0.88038172  0.38698223     0.14800
C371        C  0.28071425  0.61698241  0.02835469    -0.16900
C372        C  0.29937210  0.64972572  0.03985276     0.07200
C373        C  0.32057059  0.68301650  0.06328909     0.09000
C374        C  0.33494897  0.70600080  0.09161401    -0.17800
C375        C  0.28410347  0.76738410  0.23720222    -0.16900
C376        C  0.25330298  0.77370115  0.26565607     0.07200
C377        C  0.21741382  0.77642923  0.29957681     0.09000
C378        C  0.18757909  0.77530632  0.32927799    -0.17800
C379        C  0.44105078  0.74769162  0.19295568    -0.16900
C380        C  0.47316530  0.76511870  0.20586720     0.07200
C381        C  0.49715176  0.79953758  0.22420556     0.09000
C382        C  0.50205783  0.83567675  0.24033694    -0.17800
C383        C  0.84068520  0.02427332  0.47490794    -0.14800
C384        C  0.87854465  0.01807440  0.44638696    -0.30000
H385        H  0.84298942  0.04025743  0.50724335     0.14200
H386        H  0.87728384  0.99928741  0.41515869     0.14800
C387        C  0.57913316  0.70564275  0.15959657    -0.16900
C388        C  0.60818673  0.71670385  0.18148357     0.07200
C389        C  0.64135536  0.73924208  0.20241974     0.09000
C390        C  0.66998684  0.76167692  0.21648108    -0.17800
C391        C  0.82339296  0.77081593  0.23983799    -0.16900
C392        C  0.85416424  0.74647121  0.23940952     0.07200
C393        C  0.88560853  0.71306111  0.23778013     0.09000
C394        C  0.91043318  0.68255783  0.23472968    -0.17800
C395        C  0.72880195  0.89596497  0.27959267    -0.16900
C396        C  0.72649913  0.92845787  0.30405989     0.07200
C397        C  0.72802039  0.95946437  0.33989519     0.09000
C398        C  0.73288342  0.97755661  0.37508232    -0.17800
C399        C  0.84866743  0.02016034  0.59297994    -0.14800
C400        C  0.88946183  0.03012814  0.60382879    -0.30000
H401        H  0.84526904  0.99539089  0.56644343     0.14200
H402        H  0.89285655  0.05539591  0.62992302     0.14800
C403        C  0.77813170  0.14775778  0.67803040    -0.16900
C404        C  0.77529291  0.17722613  0.70639940     0.07200
C405        C  0.76826819  0.21248786  0.73858795     0.09000
C406        C  0.75994137  0.24423313  0.76357101    -0.17800
C407        C  0.69569364  0.32557447  0.89733678    -0.16900
C408        C  0.66932323  0.32396622  0.92989234     0.07200
C409        C  0.63080329  0.31593029  0.95878023     0.09000
C410        C  0.59446079  0.30242309  0.97174176    -0.17800
C411        C  0.75459903  0.40018023  0.77016464    -0.16900
C412        C  0.77583176  0.42901882  0.75346182     0.07200
C413        C  0.81264264  0.45360404  0.73730580     0.09000
C414        C  0.85002964  0.46620396  0.72795364    -0.17800
C415        C  0.22612011  0.26129754  0.24769976    -0.16900
C416        C  0.25381338  0.25500513  0.21617551     0.07200
C417        C  0.28746359  0.24639777  0.18059610     0.09000
C418        C  0.31719999  0.23866293  0.15122919    -0.17800
C419        C  0.07902381  0.30142258  0.31624511    -0.16900
C420        C  0.04783445  0.31974709  0.30484133     0.07200
C421        C  0.02041804  0.34757469  0.28542125     0.09000
C422        C  0.00910222  0.37816414  0.26715166    -0.17800
C423        C  0.17054481  0.02330437  0.43397380    -0.14800
C424        C  0.20763073  0.01539011  0.45298173    -0.30000
H425        H  0.16998509  0.05217010  0.41566559     0.14200
H426        H  0.20931722  0.98550499  0.46925191     0.14800
C427        C  0.24711904  0.16851587  0.46393576    -0.16900
C428        C  0.22989713  0.19984447  0.45180705     0.07200
C429        C  0.20675521  0.22900551  0.42941550     0.09000
C430        C  0.18929902  0.24741117  0.40271408    -0.17800
C431        C  0.97895265  0.42925648  0.81175662    -0.14800
C432        C  0.99521042  0.45483729  0.77941551    -0.30000
H433        H  0.94999988  0.40931812  0.80589834     0.14200
H434        H  0.02547167  0.47278790  0.78282422     0.14800
C435        C  0.01686780  0.59083321  0.13818347    -0.14800
C436        C  0.00552065  0.60729095  0.10151247    -0.30000
H437        H  0.03714116  0.56161650  0.13498557     0.14200
H438        H  0.98469556  0.63614898  0.10477839     0.14800
C439        C  0.98588986  0.48069766  0.15478505    -0.14800
C440        C  0.98279329  0.45529743  0.11720128    -0.30000
H441        H  0.97676192  0.51458622  0.15540919     0.14200
H442        H  0.99470119  0.42197121  0.11509657     0.14800
C443        C  0.18340964  0.51425418  0.95563109    -0.14800
C444        C  0.15319957  0.54265035  0.94674102    -0.30000
H445        H  0.17869737  0.48008627  0.94617535     0.14200
H446        H  0.15571031  0.57648772  0.95913841     0.14800
C447        C  0.81418441  0.44180708  0.02329922    -0.14800
C448        C  0.85527200  0.42435857  0.01157162    -0.30000
H449        H  0.80991149  0.47669511  0.02218985     0.14200
H450        H  0.86018542  0.38934837  0.00963246     0.14800
C451        C  0.04274950  0.15126577  0.41891061    -0.14800
C452        C  0.05320058  0.19267545  0.43062562    -0.30000
H453        H  0.01990660  0.14493454  0.39441851     0.14200
H454        H  0.07329918  0.19922777  0.45729605     0.14800
C455        C  0.77945004  0.09835544  0.23206879    -0.16900
C456        C  0.75457315  0.07143489  0.24792325     0.07200
C457        C  0.71791672  0.04638732  0.26412998     0.09000
C458        C  0.68153737  0.03092333  0.27283697    -0.17800
C459        C  0.77971236  0.21950846  0.14132290    -0.16900
C460        C  0.76370709  0.24477218  0.11965331     0.07200
C461        C  0.74904585  0.27957948  0.09794680     0.09000
C462        C  0.74115498  0.31297196  0.08245792    -0.17800
C463        C  0.96029259  0.25098115  0.33031162    -0.16900
C464        C  0.94052771  0.24183952  0.29917213     0.07200
C465        C  0.91457401  0.22696657  0.26603898     0.09000
C466        C  0.88914138  0.21153215  0.24188666    -0.17800
C467        C  0.01638612  0.56775822  0.83096277    -0.14800
C468        C  0.05063556  0.54955562  0.80295980    -0.30000
H469        H  0.99415110  0.59066320  0.81952878     0.14200
H470        H  0.06977060  0.52385858  0.81425959     0.14800
C471        C  0.19128080  0.99132542  0.55842233    -0.14800
C472        C  0.16996092  0.02924377  0.57177861    -0.30000
H473        H  0.17418515  0.96609119  0.54024064     0.14200
H474        H  0.18748000  0.05628798  0.58686069     0.14800
C475        C  0.10580240  0.65547480  0.70072053    -0.16900
C476        C  0.12413841  0.69031499  0.70266032     0.07200
C477        C  0.15101803  0.72630614  0.71290296     0.09000
C478        C  0.17772919  0.75120856  0.72688264    -0.17800
C479        C  0.27989816  0.87184729  0.73641292    -0.16900
C480        C  0.29065276  0.90277487  0.71576898     0.07200
C481        C  0.29748606  0.93374883  0.68419378     0.09000
C482        C  0.29821733  0.95480614  0.65265757    -0.17800
C483        C  0.28948121  0.74957503  0.82529132    -0.16900
C484        C  0.30985884  0.73092306  0.84952059     0.07200
C485        C  0.33726522  0.71306764  0.87744555     0.09000
C486        C  0.36436161  0.70503626  0.90125197    -0.17800
C487        C  0.52572137  0.82587756  0.07229916    -0.14800
C488        C  0.49500842  0.79354985  0.07702214    -0.30000
H489        H  0.56093146  0.81954456  0.07266980     0.14200
H490        H  0.46041418  0.80000043  0.07343808     0.14800
C491        C  0.43521128  0.83377674  0.98542904    -0.14800
C492        C  0.46128473  0.79753847  0.98062195    -0.30000
H493        H  0.39934215  0.83137931  0.98539651     0.14200
H494        H  0.49657576  0.80108349  0.98390928     0.14800
C495        C  0.58304758  0.97822809  0.15537883    -0.14800
C496        C  0.56019311  0.97489693  0.19566010    -0.30000
H497        H  0.61636532  0.99194863  0.15249517     0.14200
H498        H  0.52635419  0.96483614  0.19742777     0.14800
C499        C  0.42764260  0.96402275  0.18225636    -0.14800
C500        C  0.44286393  0.97772763  0.22063145    -0.30000
H501        H  0.41346484  0.93141490  0.17951602     0.14200
H502        H  0.45562480  0.01074785  0.22484888     0.14800
C503        C  0.38773378  0.09999619  0.06159669    -0.14800
C504        C  0.40038424  0.13680891  0.04196502    -0.30000
H505        H  0.36446073  0.10206494  0.09163929     0.14200
H506        H  0.42613837  0.13433203  0.01400541     0.14800
C507        C  0.53765787  0.14423020  0.00498026    -0.14800
C508        C  0.51270861  0.16542577  0.97938191    -0.30000
H509        H  0.56322468  0.16149145  0.02142426     0.14200
H510        H  0.48700308  0.14761070  0.96368648     0.14800
C511        C  0.03945284  0.17269884  0.56881095    -0.14800
C512        C  0.03416603  0.20776366  0.54573609    -0.30000
H513        H  0.06629627  0.17285669  0.58934306     0.14200
H514        H  0.00782907  0.20796281  0.52460737     0.14800
C515        C  0.45280521  0.98562373  0.87317945    -0.14800
C516        C  0.46861590  0.01698380  0.84618814    -0.30000
H517        H  0.43665066  0.95655379  0.86031385     0.14200
H518        H  0.48743464  0.04401220  0.85969206     0.14800
C519        C  0.15569620  0.41266754  0.99198933    -0.14800
C520        C  0.11515289  0.40469659  0.97909864    -0.30000
H521        H  0.15985410  0.43997315  0.01563955     0.14200
H522        H  0.11116025  0.37892486  0.95368557     0.14800
C523        C  0.24303467  0.19176830  0.63882989    -0.16900
C524        C  0.23422226  0.20890518  0.60703677     0.07200
C525        C  0.21437845  0.22955307  0.57507342     0.09000
C526        C  0.18807375  0.24473528  0.55417480    -0.17800
C527        C  0.27130851  0.07119758  0.72362176    -0.16900
C528        C  0.29364756  0.04017558  0.72764839     0.07200
C529        C  0.32995574  0.01414518  0.73321253     0.09000
C530        C  0.36690788  0.00303382  0.73762807    -0.17800
C531        C  0.23492030  0.21167715  0.79657014    -0.16900
C532        C  0.23167491  0.23718573  0.82830747     0.07200
C533        C  0.22971098  0.26982800  0.86285127     0.09000
C534        C  0.22981307  0.30035051  0.88949536    -0.17800
C535        C  0.80826181  0.55819805  0.95098613    -0.14800
C536        C  0.84855746  0.57168616  0.93353308    -0.30000
H537        H  0.80496270  0.54521571  0.98328843     0.14200
H538        H  0.85290618  0.58324340  0.90064447     0.14800
C539        C  0.99831416  0.84191842  0.57379127    -0.14800
C540        C  0.98286750  0.88135710  0.59045060    -0.30000
H541        H  0.03024692  0.84026315  0.55307193     0.14200
H542        H  0.95049067  0.88385055  0.61023295     0.14800
C543        C  0.70740348  0.60698091  0.72135612    -0.16900
C544        C  0.72233067  0.58067339  0.74255348     0.07200
C545        C  0.73706030  0.55861302  0.77649214     0.09000
C546        C  0.74351176  0.54697750  0.81167082    -0.17800
C547        C  0.73920024  0.73144116  0.63861008    -0.16900
C548        C  0.77166874  0.74824014  0.62006732     0.07200
C549        C  0.81443210  0.76189245  0.60272395     0.09000
C550        C  0.85330785  0.76754472  0.59051981    -0.17800
C551        C  0.57753772  0.98371273  0.86214953    -0.14800
C552        C  0.59298810  0.96971630  0.89798851    -0.39000
H553        H  0.55889487  0.01389033  0.86532986     0.14200
H554        H  0.61314157  0.94033894  0.89367857     0.14800
C555        C  0.56153410  0.83615359  0.79411351    -0.16900
C556        C  0.56934914  0.79804378  0.78581240     0.07200
C557        C  0.58681218  0.75795007  0.76681432     0.09000
C558        C  0.60931948  0.73012946  0.74553104    -0.17800
C559        C  0.45073692  0.32855035  0.08359703    -0.14800
C560        C  0.45025077  0.28903917  0.06142171    -0.30000
H561        H  0.42975327  0.33391256  0.11492814     0.14200
H562        H  0.47073422  0.28379425  0.03015621     0.14800
C563        C  0.44958930  0.29009450  0.91829006    -0.14800
C564        C  0.43647975  0.33200485  0.91898272    -0.30000
H565        H  0.43366277  0.26641014  0.89717114     0.14200
H566        H  0.41176392  0.33958579  0.89784046     0.14800
C567        C  0.61248916  0.42413279  0.07907156    -0.14800
C568        C  0.65183796  0.43921799  0.06016483    -0.30000
H569        H  0.61140060  0.39680469  0.09964504     0.14200
H570        H  0.65159515  0.46612972  0.03919091     0.14800
C571        C  0.65544456  0.50849816  0.94621762    -0.14800
C572        C  0.62148358  0.48948443  0.92703846    -0.30000
H573        H  0.65247879  0.51443551  0.98180940     0.14200
H574        H  0.62453214  0.48151811  0.89169585     0.14800
C575        C  0.46241508  0.59845550  0.10233516    -0.14800
C576        C  0.45861037  0.63702109  0.08489101    -0.30000
H577        H  0.48112634  0.59700322  0.13025915     0.14200
H578        H  0.43984701  0.63884757  0.05707710     0.14800
C579        C  0.47809014  0.59715284  0.94678658    -0.14800
C580        C  0.48408948  0.63709008  0.96704310    -0.30000
H581        H  0.45867723  0.59463265  0.91913994     0.14200
H582        H  0.50360219  0.64017916  0.99456944     0.14800
C583        C  0.31300550  0.47145728  0.08318934    -0.14800
C584        C  0.27946528  0.46449522  0.05853776    -0.30000
H585        H  0.31384718  0.50252967  0.10240867     0.14200
H586        H  0.27758548  0.43322044  0.03997602     0.14800
C587        C  0.32481721  0.46346688  0.95308029    -0.14800
C588        C  0.31751722  0.42059949  0.94328479    -0.30000
H589        H  0.29817035  0.48678039  0.95416962     0.14200
H590        H  0.34531019  0.39806077  0.93996843     0.14800
C591        C  0.10641041  0.51791797  0.30374184    -0.14800
C592        C  0.09416076  0.51102449  0.26242737    -0.30000
H593        H  0.13573327  0.53826709  0.30648109     0.14200
H594        H  0.11539253  0.52568180  0.23618878     0.14800
C595        C  0.95244860  0.55839567  0.33138122    -0.14800
C596        C  0.98077124  0.56193453  0.29417609    -0.30000
H597        H  0.91915532  0.57202618  0.33457784     0.14200
H598        H  0.01453193  0.55053079  0.29348050     0.14800
C599        C  0.11010980  0.51233423  0.60239340    -0.14800
C600        C  0.08789851  0.50490153  0.64243624    -0.30000
H601        H  0.13498019  0.53819271  0.60086698     0.14200
H602        H  0.06401185  0.47826234  0.64502300     0.14800
C603        C  0.95948820  0.52527720  0.60419550    -0.14800
C604        C  0.97851119  0.52697463  0.64194702    -0.30000
H605        H  0.92683875  0.51025397  0.60330125     0.14200
H606        H  0.01144393  0.54082149  0.64222152     0.14800
C607        C  0.09501534  0.34990948  0.49880010    -0.14800
C608        C  0.09409373  0.36224947  0.45747615    -0.30000
H609        H  0.08834289  0.37370507  0.52675863     0.14200
H610        H  0.09830590  0.33824245  0.42951358     0.14800
C611        C  0.96782448  0.37416101  0.45493344    -0.14800
C612        C  0.98725304  0.33771585  0.46515455    -0.30000
H613        H  0.95322645  0.37408594  0.42428246     0.14200
H614        H  0.00292622  0.33840486  0.49518631     0.14800
C615        C  0.96665575  0.64960243  0.51622991    -0.14800
C616        C  0.98713114  0.68656951  0.53030921    -0.30000
H617        H  0.93069486  0.64817172  0.51655691     0.14200
H618        H  0.02327276  0.68756552  0.52817208     0.14800
C619        C  0.12908127  0.64833756  0.42681856    -0.14800
C620        C  0.10744467  0.68612815  0.43882432    -0.30000
H621        H  0.16048719  0.64677938  0.40534113     0.14200
H622        H  0.07675095  0.68549990  0.46142272     0.14800
C623        C  0.50039255  0.09932851  0.66552476    -0.14800
C624        C  0.49654945  0.09166052  0.70907551    -0.30000
H625        H  0.51655156  0.12983249  0.65693239     0.14200
H626        H  0.50974718  0.11701072  0.73052990     0.14800
C627        C  0.53977339  0.96011791  0.71077775    -0.14800
C628        C  0.52196773  0.93704725  0.67776333    -0.30000
H629        H  0.54881469  0.99410064  0.70736686     0.14200
H630        H  0.51065637  0.90370838  0.68129555     0.14800
C631        C  0.34305113  0.06149869  0.51997684    -0.14800
C632        C  0.37953528  0.08615692  0.52677284    -0.30000
H633        H  0.34256195  0.02833800  0.52937968     0.14200
H634        H  0.38296160  0.11845912  0.51467411     0.14800
C635        C  0.38031496  0.92246235  0.49170599    -0.14800
C636        C  0.33534765  0.92613047  0.49717485    -0.30000
H637        H  0.39501472  0.90010137  0.46492984     0.14200
H638        H  0.31718248  0.90674009  0.47416287     0.14800
C639        C  0.54265946  0.05724799  0.38701911    -0.14800
C640        C  0.52949175  0.03994367  0.34885986    -0.30000
H641        H  0.57762638  0.06526805  0.38813318     0.14200
H642        H  0.49453155  0.03219128  0.34758041     0.14800
C643        C  0.52599733  0.93687938  0.38339759    -0.14800
C644        C  0.48938430  0.94480165  0.36378169    -0.30000
H645        H  0.55470634  0.92037514  0.36491112     0.14200
H646        H  0.46317318  0.96550848  0.38140039     0.14800
C647        C  0.66387167  0.08589411  0.56896992    -0.14800
C648        C  0.69618621  0.05869941  0.57689640    -0.30000
H649        H  0.66856361  0.12096308  0.56985175     0.14200
H650        H  0.69009985  0.02382750  0.57324586     0.14800
C651        C  0.66198961  0.93363230  0.53739303    -0.14800
C652        C  0.70611007  0.94200174  0.52634433    -0.30000
H653        H  0.65443482  0.90915044  0.56106487     0.14200
H654        H  0.72894729  0.92332047  0.54229477     0.14800
loop_ 
_geom_bond_atom_site_label_1 
_geom_bond_atom_site_label_2 
_geom_bond_distance 
_geom_bond_site_symmetry_2 
_ccdc_geom_bond_type 
O1            C9   1.249       .  A
O1          Co21   2.009   1_565  S
O2           C10   1.275       .  A
O2          Co22   2.003       .  S
O3           C11   1.260       .  A
O3          Co23   1.975   1_565  S
O4           C12   1.242       .  A
O4          Co24   1.944   1_565  S
O5           C11   1.271       .  A
O5          Co22   2.009       .  S
O6           C12   1.261       .  A
O6          Co21   2.028   1_565  S
O7           C10   1.273       .  A
O7          Co24   2.018   1_565  S
O8            C9   1.253       .  A
O8          Co23   1.983   1_565  S
C9          C651   1.486       .  S
C10         C635   1.478       .  S
C11         C628   1.480       .  S
C12         C643   1.480       .  S
O13          C26   1.290       .  A
O13         Co21   2.030       .  S
O14          C27   1.265       .  A
O14         Co22   2.029   1_545  S
O15          C28   1.260       .  A
O15         Co23   1.858       .  S
O16          C29   1.260       .  A
O16         Co24   1.981       .  S
O17          C29   1.271       .  A
O17         Co22   2.033   1_545  S
O18          C28   1.305       .  A
O18         Co21   2.110       .  S
O19          C26   1.278       .  A
O19         Co24   1.953       .  S
O20          C27   1.265       .  A
O20         Co23   1.980       .  S
Co21         O25   2.295   1_545  S
Co22         O25   2.132       .  S
Co23         O25   1.908   1_545  S
Co24         O25   1.975   1_545  S
C26         C639   1.490       .  S
C27         C623   1.487       .  S
C28         C647   1.476       .  S
C29         C632   1.501       .  S
O30          C38   1.257   1_455  A
O30         Co50   1.979       .  S
O31          C39   1.291       .  A
O31         Co51   2.028   1_655  S
O32          C40   1.262       .  A
O32         Co52   1.846   1_655  S
O33          C41   1.260       .  A
O33         Co53   1.968   1_655  S
O34          C40   1.312       .  A
O34         Co51   2.143   1_655  S
O35          C41   1.274   1_455  A
O35         Co50   2.043       .  S
O36          C39   1.280       .  A
O36         Co53   1.942   1_655  S
O37          C38   1.266       .  A
O37         Co52   2.004   1_655  S
C38         C615   1.485       .  S
C39         C611   1.485       .  S
C40         C595   1.474       .  S
C41         C603   1.482       .  S
O42          C55   1.271       .  A
O42         Co50   1.981       .  S
O43          C56   1.249       .  A
O43         Co51   1.979       .  S
O44          C57   1.274       .  A
O44         Co52   1.992       .  S
O45          C58   1.244       .  A
O45         Co53   1.947       .  S
O46          C58   1.261       .  A
O46         Co51   2.032       .  S
O47          C57   1.275       .  A
O47         Co50   1.996       .  S
O48          C55   1.277       .  A
O48         Co53   2.049       .  S
O49          C56   1.259       .  A
O49         Co52   2.017       .  S
Co50         O54   2.112       .  S
Co51         O54   2.245       .  S
Co52         O54   1.941       .  S
Co53         O54   1.984       .  S
C55         C599   1.500       .  S
C56         C591   1.487       .  S
C57         C619   1.471       .  S
C58         C608   1.487       .  S
O59          C67   1.283       .  A
O59         Co79   2.069       .  S
O60          C68   1.264       .  A
O60         Co80   1.984   1_554  S
O61          C69   1.265       .  A
O61         Co81   1.956       .  S
O62          C70   1.260       .  A
O62         Co82   1.973       .  S
O63          C69   1.286       .  A
O63         Co80   2.063   1_554  S
O64          C70   1.268       .  A
O64         Co79   2.029       .  S
O65          C68   1.271       .  A
O65         Co82   1.998       .  S
O66          C67   1.270       .  A
O66         Co81   1.935       .  S
C67         C583   1.474       .  S
C68         C567   1.474       .  S
C69         C559   1.486       .  S
C70         C575   1.482       .  S
O71          C84   1.268       .  A
O71         Co79   1.965   1_556  S
O72          C85   1.261       .  A
O72         Co80   1.981       .  S
O73          C86   1.284       .  A
O73         Co81   2.061   1_556  S
O74          C87   1.269       .  A
O74         Co82   1.979   1_556  S
O75          C87   1.272       .  A
O75         Co80   1.994       .  S
O76          C86   1.274       .  A
O76         Co79   1.939   1_556  S
O77          C84   1.285   1_554  A
O77         Co82   2.068       .  S
O78          C85   1.264       .  A
O78         Co81   2.016   1_556  S
Co79         O83   2.035       .  S
Co80         O83   2.046   1_556  S
Co81         O83   2.009       .  S
Co82         O83   2.034       .  S
C84         C579   1.494       .  S
C85         C564   1.472       .  S
C86         C587   1.484       .  S
C87         C572   1.476       .  S
C88         C551   1.486       .  S
C88          N89   1.361       .  A
C88          N93   1.362       .  A
N89          C90   1.363       .  A
C90         C627   1.474       .  S
C90          N91   1.353       .  A
N91          C92   1.354       .  A
C92          N93   1.358       .  A
C92         C555   1.429       .  S
C94          N95   1.356       .  A
C94          N99   1.357       .  A
C94         C558   1.430       .  S
N95          C96   1.357       .  A
C96          N97   1.354       .  A
C96         C543   1.427       .  S
N97          C98   1.354       .  A
C98          N99   1.354       .  A
C98         C547   1.429       .  S
C100        C539   1.484       .  S
C100        N101   1.360       .  A
C100        N105   1.361       .  A
N101        C102   1.360       .  A
C102        C616   1.475       .  S
C102        N103   1.354       .  A
N103        C104   1.357       .  A
C104        N105   1.360       .  A
C104        C550   1.430       .  S
C106        C535   1.476       .  S
C106        N107   1.356       .  A
C106        N111   1.361       .  A
N107        C108   1.357       .  A
C108        C571   1.465       .  S
C108        N109   1.352       .  A
N109        C110   1.354       .  A
C110        N111   1.360       .  A
C110        C546   1.427       .  S
C112        N113   1.355       .  A
C112        N117   1.357       .  A
C112        C527   1.425       .  S
N113        C114   1.353       .  A
C114        N115   1.354       .  A
C114        C531   1.425       .  S
N115        C116   1.355       .  A
C116        N117   1.356       .  A
C116        C523   1.429       .  S
C118        C588   1.479       .  S
C118        N119   1.359       .  A
C118        N123   1.354       .  A
N119        C120   1.363       .  A
C120        C519   1.480       .  S
C120        N121   1.356       .  A
N121        C122   1.354       .  A
C122        N123   1.355       .  A
C122        C534   1.423       .  S
C124        C516   1.488       .  S
C124        N125   1.368       .  A
C124        N129   1.355       .  A
N125        C126   1.368       .  A
C126        C624   1.493       .  S
C126        N127   1.352       .  A
N127        C128   1.358       .  A
C128        N129   1.357       .  A
C128        C530   1.421       .  S
C130        C607   1.474       .  S
C130        N131   1.359       .  A
C130        N135   1.369       .  A
N131        C132   1.355       .  A
C132        N133   1.348       .  A
C132        C526   1.425       .  S
N133        C134   1.351       .  A
C134        C512   1.487       .  S
C134        N135   1.365       .  A
O136        C144   1.259       .  A
O136       Co156   1.934       .  S
O137        C145   1.259   1_545  A
O137       Co157   1.955       .  S
O138        C146   1.259   1_556  A
O138       Co158   1.966       .  S
O139        C147   1.268       .  A
O139       Co159   1.877       .  S
O140        C146   1.273       .  A
O140       Co157   2.019       .  S
O141        C147   1.310       .  A
O141       Co156   2.135   1_554  S
O142        C145   1.281       .  A
O142       Co159   2.070       .  S
O143        C144   1.280   1_545  A
O143       Co158   2.065       .  S
C144        C552   1.477       .  S
C145        C495   1.479       .  S
C146        C507   1.493       .  S
C147        C487   1.475       .  S
O148        C161   1.271       .  A
O148       Co156   1.865       .  S
O149        C162   1.270       .  A
O149       Co157   1.981       .  S
O150        C163   1.264   1_545  A
O150       Co158   1.854       .  S
O151        C164   1.263       .  A
O151       Co159   1.967       .  S
O152        C164   1.278   1_545  A
O152       Co157   2.054       .  S
O153        C163   1.316       .  A
O153       Co156   2.179       .  S
O154        C161   1.317   1_554  A
O154       Co159   2.127       .  S
O155        C162   1.278       .  A
O155       Co158   2.000   1_554  S
Co156       O160   2.040   1_556  S
Co157       O160   2.045   1_545  S
Co158       O160   1.884   1_546  S
Co159       O160   1.993       .  S
C161        C491   1.485       .  S
C162        C503   1.473       .  S
C163        C515   1.491       .  S
C164        C499   1.493       .  S
C165        N166   1.354       .  A
C165        N170   1.358       .  A
C165        C483   1.430       .  S
N166        C167   1.354       .  A
C167        N168   1.353       .  A
C167        C478   1.429       .  S
N168        C169   1.357       .  A
C169        N170   1.357       .  A
C169        C479   1.428       .  S
C171        C492   1.482       .  S
C171        N172   1.370       .  A
C171        N176   1.350       .  A
N172        C173   1.369       .  A
C173        C580   1.499       .  S
C173        N174   1.363       .  A
N174        C175   1.359       .  A
C175        N176   1.352       .  A
C175        C486   1.428       .  S
C177        C471   1.482       .  S
C177        N178   1.355       .  A
C177        N182   1.365       .  A
N178        C179   1.359       .  A
C179        N180   1.356       .  A
C179        C482   1.424       .  S
N180        C181   1.354       .  A
C181        C636   1.482       .  S
C181        N182   1.364       .  A
C183        C468   1.489       .  S
C183        N184   1.373       .  A
C183        N188   1.352       .  A
N184        C185   1.371       .  A
C185        C600   1.505       .  S
C185        N186   1.360       .  A
N186        C187   1.357       .  A
C187        N188   1.355       .  A
C187        C475   1.428       .  S
C189        N190   1.356       .  A
C189        N194   1.355       .  A
C189        C459   1.430       .  S
N190        C191   1.355       .  A
C191        N192   1.355       .  A
C191        C466   1.428       .  S
N192        C193   1.353       .  A
C193        N194   1.357       .  A
C193        C455   1.427       .  S
C195        C452   1.480       .  S
C195        N196   1.359       .  A
C195        N200   1.356       .  A
N196        C197   1.360   1_455  A
C197        C612   1.484       .  S
C197        N198   1.359       .  A
N198        C199   1.359       .  A
C199        N200   1.355   1_655  A
C199        C463   1.430       .  S
C201        C447   1.478       .  S
C201        N202   1.361       .  A
C201        N206   1.355       .  A
N202        C203   1.361       .  A
C203        C568   1.481       .  S
C203        N204   1.359       .  A
N204        C205   1.359       .  A
C205        N206   1.358       .  A
C205        C462   1.429       .  S
C207        C496   1.483       .  S
C207        N208   1.366   1_565  A
C207        N212   1.352       .  A
N208        C209   1.365       .  A
C209        C640   1.493       .  S
C209        N210   1.359       .  A
N210        C211   1.357       .  A
C211        N212   1.353   1_545  A
C211        C458   1.425       .  S
O213        C221   1.269       .  A
O213       Co233   1.972       .  S
O214        C222   1.287       .  A
O214       Co234   2.048   1_556  S
O215        C223   1.272   1_655  A
O215       Co235   1.979       .  S
O216        C224   1.249       .  A
O216       Co236   1.965       .  S
O217        C223   1.282       .  A
O217       Co234   2.028       .  S
O218        C224   1.267   1_655  A
O218       Co233   2.063       .  S
O219        C222   1.280       .  A
O219       Co236   1.931       .  S
O220        C221   1.278       .  A
O220       Co235   2.010   1_556  S
C221        C536   1.464       .  S
C222        C444   1.468       .  S
C223        C436   1.482       .  S
C224        C467   1.490       .  S
O225        C238   1.274       .  A
O225       Co233   1.863       .  S
O226        C239   1.261       .  A
O226       Co234   1.992   1_655  S
O227        C240   1.272       .  A
O227       Co235   1.989       .  S
O228        C241   1.300       .  A
O228       Co236   2.071       .  S
O229        C241   1.277   1_554  A
O229       Co234   1.901       .  S
O230        C240   1.278   1_556  A
O230       Co233   2.004       .  S
O231        C238   1.322   1_455  A
O231       Co236   2.173       .  S
O232        C239   1.272       .  A
O232       Co235   2.052       .  S
Co233       O237   1.881       .  S
Co234       O237   1.955   1_454  S
Co235       O237   2.026   1_554  S
Co236       O237   2.061   1_455  S
C238        C431   1.490       .  S
C239        C440   1.507       .  S
C240        C448   1.485       .  S
C241        C520   1.476       .  S
C242        C424   1.497       .  S
C242        N243   1.364       .  A
C242        N247   1.353       .  A
N243        C244   1.369       .  A
C244        C631   1.496       .  S
C244        N245   1.363       .  A
N245        C246   1.364       .  A
C246        N247   1.356       .  A
C246        C427   1.434       .  S
C248        N249   1.352       .  A
C248        N253   1.353       .  A
C248        C415   1.432       .  S
N249        C250   1.355       .  A
C250        N251   1.362       .  A
C250        C430   1.434       .  S
N251        C252   1.362       .  A
C252        N253   1.357       .  A
C252        C419   1.435       .  S
C254        C439   1.503   1_455  S
C254        N255   1.369       .  A
C254        N259   1.365   1_455  A
N255        C256   1.368       .  A
C256        C592   1.491       .  S
C256        N257   1.347       .  A
N257        C258   1.356       .  A
C258        N259   1.367   1_455  A
C258        C422   1.432       .  S
C260        C504   1.482       .  S
C260        N261   1.364       .  A
C260        N265   1.358       .  A
N261        C262   1.362       .  A
C262        C560   1.488       .  S
C262        N263   1.358       .  A
N263        C264   1.358       .  A
C264        N265   1.358       .  A
C264        C418   1.432       .  S
C266        N267   1.353       .  A
C266        N271   1.354       .  A
C266        C411   1.422       .  S
N267        C268   1.355       .  A
C268        N269   1.360       .  A
C268        C407   1.430       .  S
N269        C270   1.358       .  A
C270        N271   1.353       .  A
C270        C406   1.435       .  S
C272        C604   1.483       .  S
C272        N273   1.371       .  A
C272        N277   1.353       .  A
N273        C274   1.368       .  A
C274        C432   1.501       .  S
C274        N275   1.358       .  A
N275        C276   1.356       .  A
C276        N277   1.350       .  A
C276        C414   1.423       .  S
C278        C563   1.486       .  S
C278        N279   1.361       .  A
C278        N283   1.357       .  A
N279        C280   1.363       .  A
C280        C508   1.481       .  S
C280        N281   1.356       .  A
N281        C282   1.359       .  A
C282        N283   1.361       .  A
C282        C410   1.428       .  S
C284        C648   1.472       .  S
C284        N285   1.357       .  A
C284        N289   1.358       .  A
N285        C286   1.360       .  A
C286        N287   1.360       .  A
C286        C403   1.436       .  S
N287        C288   1.361       .  A
C288        C399   1.482       .  S
C288        N289   1.356       .  A
C290        N291   1.359       .  A
C290        N295   1.358       .  A
C290        C395   1.431       .  S
N291        C292   1.358       .  A
C292        N293   1.351       .  A
C292        C390   1.428       .  S
N293        C294   1.351       .  A
C294        N295   1.355       .  A
C294        C391   1.426       .  S
C296        C652   1.489       .  S
C296        N297   1.368       .  A
C296        N301   1.355       .  A
N297        C298   1.366   1_565  A
C298        C383   1.490       .  S
C298        N299   1.356       .  A
N299        C300   1.359   1_545  A
C300        N301   1.360       .  A
C300        C398   1.429       .  S
C302        C596   1.479       .  S
C302        N303   1.357       .  A
C302        N307   1.363       .  A
N303        C304   1.358       .  A
C304        N305   1.356       .  A
C304        C394   1.427       .  S
N305        C306   1.356       .  A
C306        C435   1.487   1_655  S
C306        N307   1.361       .  A
C308        C576   1.488       .  S
C308        N309   1.365       .  A
C308        N313   1.363       .  A
N309        C310   1.364       .  A
C310        C488   1.473       .  S
C310        N311   1.349       .  A
N311        C312   1.350       .  A
C312        N313   1.357       .  A
C312        C387   1.426       .  S
C314        N315   1.352       .  A
C314        N319   1.353       .  A
C314        C375   1.429       .  S
N315        C316   1.355       .  A
C316        N317   1.356       .  A
C316        C374   1.425       .  S
N317        C318   1.355       .  A
C318        N319   1.356       .  A
C318        C379   1.425       .  S
C320        C644   1.473       .  S
C320        N321   1.355       .  A
C320        N325   1.369       .  A
N321        C322   1.353       .  A
C322        N323   1.357       .  A
C322        C382   1.426       .  S
N323        C324   1.358       .  A
C324        C500   1.496       .  S
C324        N325   1.364       .  A
C326        C620   1.469       .  S
C326        N327   1.355       .  A
C326        N331   1.356       .  A
N327        C328   1.355       .  A
C328        C367   1.470       .  S
C328        N329   1.357       .  A
N329        C330   1.360       .  A
C330        N331   1.360       .  A
C330        C378   1.429       .  S
C332        C584   1.487       .  S
C332        N333   1.356       .  A
C332        N337   1.355       .  A
N333        C334   1.357       .  A
C334        N335   1.357   1_554  A
C334        C371   1.426       .  S
N335        C336   1.357       .  A
C336        C443   1.477       .  S
C336        N337   1.359   1_556  A
O338        C346   1.266       .  A
O338       Co358   1.986       .  S
O339        C347   1.294       .  A
O339       Co359   2.061   1_455  S
O340        C348   1.267       .  A
O340       Co360   2.001   1_545  S
O341        C349   1.268       .  A
O341       Co361   1.969       .  S
O342        C348   1.251       .  A
O342       Co359   1.980       .  S
O343        C349   1.277   1_565  A
O343       Co358   2.042       .  S
O344        C347   1.277       .  A
O344       Co361   1.919       .  S
O345        C346   1.269       .  A
O345       Co360   2.000   1_455  S
C346        C368   1.477       .  S
C347        C451   1.472       .  S
C348        C384   1.493       .  S
C349        C423   1.495       .  S
O350        C363   1.266       .  A
O350       Co358   1.975   1_545  S
O351        C364   1.262       .  A
O351       Co359   1.941       .  S
O352        C365   1.263       .  A
O352       Co360   1.984       .  S
O353        C366   1.260       .  A
O353       Co361   2.018       .  S
O354        C366   1.241   1_655  A
O354       Co359   1.966       .  S
O355        C365   1.270   1_455  A
O355       Co358   1.999       .  S
O356        C363   1.272       .  A
O356       Co361   2.031       .  S
O357        C364   1.287   1_565  A
O357       Co360   2.058       .  S
Co358       O362   2.068   1_565  S
Co359       O362   2.075   1_655  S
Co360       O362   2.082   1_665  S
Co361       O362   1.986       .  S
C363        C472   1.486       .  S
C364        C400   1.476       .  S
C365        C540   1.472       .  S
C366        C511   1.473       .  S
C367        C368   1.347       .  D
C367        H369   1.087       .  S
C368        H370   1.086       .  S
C371        C372   1.200       .  T
C372        C373   1.401       .  S
C373        C374   1.199       .  T
C375        C376   1.202       .  T
C376        C377   1.405       .  S
C377        C378   1.202       .  T
C379        C380   1.198       .  T
C380        C381   1.398       .  S
C381        C382   1.198       .  T
C383        C384   1.358       .  D
C383        H385   1.083       .  S
C384        H386   1.086   1_545  S
C387        C388   1.200       .  T
C388        C389   1.404       .  S
C389        C390   1.201       .  T
C391        C392   1.200       .  T
C392        C393   1.403       .  S
C393        C394   1.200       .  T
C395        C396   1.202       .  T
C396        C397   1.406       .  S
C397        C398   1.202       .  T
C399        C400   1.342       .  D
C399        H401   1.086   1_545  S
C400        H402   1.087       .  S
C403        C404   1.205       .  T
C404        C405   1.412       .  S
C405        C406   1.205       .  T
C407        C408   1.201       .  T
C408        C409   1.403       .  S
C409        C410   1.200       .  T
C411        C412   1.197       .  T
C412        C413   1.397       .  S
C413        C414   1.197       .  T
C415        C416   1.203       .  T
C416        C417   1.408       .  S
C417        C418   1.204       .  T
C419        C420   1.205       .  T
C420        C421   1.411       .  S
C421        C422   1.204       .  T
C423        C424   1.358       .  D
C423        H425   1.087       .  S
C424        H426   1.083   1_545  S
C427        C428   1.205       .  T
C428        C429   1.411       .  S
C429        C430   1.205       .  T
C431        C432   1.352       .  D
C431        H433   1.087       .  S
C432        H434   1.074   1_655  S
C435        C436   1.350       .  D
C435        H437   1.086       .  S
C436        H438   1.087   1_455  S
C439        C440   1.356       .  D
C439        H441   1.080       .  S
C440        H442   1.086       .  S
C443        C444   1.338       .  D
C443        H445   1.082       .  S
C444        H446   1.087       .  S
C447        C448   1.356       .  D
C447        H449   1.086       .  S
C448        H450   1.086       .  S
C451        C452   1.342       .  D
C451        H453   1.087       .  S
C452        H454   1.083       .  S
C455        C456   1.200       .  T
C456        C457   1.402       .  S
C457        C458   1.199       .  T
C459        C460   1.202       .  T
C460        C461   1.406       .  S
C461        C462   1.202       .  T
C463        C464   1.202       .  T
C464        C465   1.405       .  S
C465        C466   1.201       .  T
C467        C468   1.359       .  D
C467        H469   1.086   1_455  S
C468        H470   1.087       .  S
C471        C472   1.352   1_565  D
C471        H473   1.085       .  S
C472        H474   1.086       .  S
C475        C476   1.201       .  T
C476        C477   1.404       .  S
C477        C478   1.201       .  T
C479        C480   1.201       .  T
C480        C481   1.403       .  S
C481        C482   1.201       .  T
C483        C484   1.202       .  T
C484        C485   1.406       .  S
C485        C486   1.202       .  T
C487        C488   1.355       .  D
C487        H489   1.086       .  S
C488        H490   1.087       .  S
C491        C492   1.362       .  D
C491        H493   1.085       .  S
C492        H494   1.087       .  S
C495        C496   1.348       .  D
C495        H497   1.082       .  S
C496        H498   1.060       .  S
C499        C500   1.352       .  D
C499        H501   1.087       .  S
C500        H502   1.086   1_565  S
C503        C504   1.350       .  D
C503        H505   1.086       .  S
C504        H506   1.083       .  S
C507        C508   1.358   1_554  D
C507        H509   1.086       .  S
C508        H510   1.085       .  S
C511        C512   1.355       .  D
C511        H513   1.086       .  S
C512        H514   1.087       .  S
C515        C516   1.361   1_565  D
C515        H517   1.085       .  S
C516        H518   1.087       .  S
C519        C520   1.347       .  D
C519        H521   1.085   1_556  S
C520        H522   1.086       .  S
C523        C524   1.201       .  T
C524        C525   1.404       .  S
C525        C526   1.200       .  T
C527        C528   1.199       .  T
C528        C529   1.401       .  S
C529        C530   1.198       .  T
C531        C532   1.199       .  T
C532        C533   1.401       .  S
C533        C534   1.199       .  T
C535        C536   1.341       .  D
C535        H537   1.088       .  S
C536        H538   1.086       .  S
C539        C540   1.348       .  D
C539        H541   1.087   1_655  S
C540        H542   1.086       .  S
C543        C544   1.200       .  T
C544        C545   1.403       .  S
C545        C546   1.200       .  T
C547        C548   1.202       .  T
C548        C549   1.406       .  S
C549        C550   1.202       .  T
C551        C552   1.346       .  D
C551        H553   1.084   1_565  S
C552        H554   1.087       .  S
C555        C556   1.202       .  T
C556        C557   1.405       .  S
C557        C558   1.202       .  T
C559        C560   1.349       .  D
C559        H561   1.087       .  S
C560        H562   1.077       .  S
C563        C564   1.352       .  D
C563        H565   1.086       .  S
C564        H566   1.086       .  S
C567        C568   1.349       .  D
C567        H569   1.086       .  S
C568        H570   1.086       .  S
C571        C572   1.350       .  D
C571        H573   1.086       .  S
C572        H574   1.086       .  S
C575        C576   1.349       .  D
C575        H577   1.087       .  S
C576        H578   1.086       .  S
C579        C580   1.356       .  D
C579        H581   1.087       .  S
C580        H582   1.086       .  S
C583        C584   1.343       .  D
C583        H585   1.087       .  S
C584        H586   1.086       .  S
C587        C588   1.352       .  D
C587        H589   1.081       .  S
C588        H590   1.087       .  S
C591        C592   1.364       .  D
C591        H593   1.086       .  S
C592        H594   1.086       .  S
C595        C596   1.349       .  D
C595        H597   1.085       .  S
C596        H598   1.080   1_655  S
C599        C600   1.358       .  D
C599        H601   1.087       .  S
C600        H602   1.086       .  S
C603        C604   1.352       .  D
C603        H605   1.086       .  S
C604        H606   1.078   1_655  S
C607        C608   1.353       .  D
C607        H609   1.086       .  S
C608        H610   1.086       .  S
C611        C612   1.347       .  D
C611        H613   1.086       .  S
C612        H614   1.085   1_655  S
C615        C616   1.356       .  D
C615        H617   1.086       .  S
C616        H618   1.086   1_655  S
C619        C620   1.346       .  D
C619        H621   1.085       .  S
C620        H622   1.088       .  S
C623        C624   1.364       .  D
C623        H625   1.087       .  S
C624        H626   1.087       .  S
C627        C628   1.355       .  D
C627        H629   1.087       .  S
C628        H630   1.086       .  S
C631        C632   1.359       .  D
C631        H633   1.080       .  S
C632        H634   1.086       .  S
C635        C636   1.353       .  D
C635        H637   1.086       .  S
C636        H638   1.086       .  S
C639        C640   1.352       .  D
C639        H641   1.086       .  S
C640        H642   1.085       .  S
C643        C644   1.356       .  D
C643        H645   1.086       .  S
C644        H646   1.087       .  S
C647        C648   1.350       .  D
C647        H649   1.085       .  S
C648        H650   1.086       .  S
C651        C652   1.360       .  D
C651        H653   1.087       .  S
C652        H654   1.087       .  S
