geometry optimzed in LAMMPS
_audit_creation_date              2020-11-30 
_audit_creation_method            'lammps2cif' 
_symmetry_space_group_name_H-M    'P1' 
_symmetry_Int_Tables_number       1 
_symmetry_cell_setting            triclinic 
loop_ 
_symmetry_equiv_pos_as_xyz 
  x,y,z 
_cell_length_a                    36.52093443 
_cell_length_b                    36.84842116872826 
_cell_length_c                    37.2415443930445 
_cell_angle_alpha                 87.79641066778649 
_cell_angle_beta                  87.97035169677034 
_cell_angle_gamma                 90.91447512515865 
loop_ 
_atom_site_label 
_atom_site_type_symbol 
_atom_site_fract_x 
_atom_site_fract_y 
_atom_site_fract_z 
_atom_site_charge 
O1          O  0.56432238  0.94661509  0.46017644    -0.80700
O2          O  0.43006557  0.93906653  0.51242960    -0.80700
O3          O  0.53739350  0.94069076  0.54352017    -0.80700
O4          O  0.46030750  0.93679400  0.43563556    -0.80700
O5          O  0.48130842  0.93826795  0.56356518    -0.80800
O6          O  0.51249896  0.94495434  0.40832736    -0.80700
O7          O  0.40941178  0.97247383  0.46866658    -0.80700
O8          O  0.58488498  0.97903712  0.50284876    -0.80700
C9          C  0.59131246  0.95838996  0.47659489     1.09000
C10         C  0.40340485  0.94861627  0.49392265     1.08900
C11         C  0.51378506  0.92789873  0.56579542     1.09000
C12         C  0.48153351  0.92926071  0.41024565     1.08900
O13         O  0.50263824  0.02243096  0.41383123    -0.80700
O14         O  0.48744243  0.01615038  0.56049180    -0.80800
O15         O  0.53411978  0.04026214  0.50259068    -0.80700
O16         O  0.45649451  0.03746287  0.46594978    -0.80700
O17         O  0.42755135  0.01751159  0.51443881    -0.80700
O18         O  0.56532913  0.02476440  0.45603395    -0.80700
O19         O  0.44693341  0.00247156  0.40276326    -0.80700
O20         O  0.54750762  0.00866472  0.56727092    -0.80700
Co21       Co  0.53267258  0.98374600  0.43936448     1.51500
Co22       Co  0.46063548  0.97749538  0.53259152     1.51700
Co23       Co  0.53277893  0.98987558  0.52261975     1.51600
Co24       Co  0.46120224  0.98699507  0.45053348     1.51500
O25         O  0.49760161  0.97399947  0.48680256    -1.42600
C26         C  0.47680670  0.01826343  0.39171959     1.08900
C27         C  0.51716298  0.02257582  0.57725306     1.09000
C28         C  0.56238130  0.04504442  0.48258451     1.09000
C29         C  0.42973082  0.03999093  0.48782298     1.08900
O30         O  0.94452676  0.53730057  0.53170943    -0.80700
O31         O  0.95141611  0.45770137  0.47739084    -0.80700
O32         O  0.96437151  0.51810139  0.43366824    -0.80700
O33         O  0.96162269  0.48301621  0.57384451    -0.80700
O34         O  0.99144455  0.46907468  0.41720507    -0.80800
O35         O  0.97953283  0.53367159  0.59700376    -0.80700
O36         O  0.96471624  0.42602826  0.52480498    -0.80700
O37         O  0.96278103  0.57005917  0.48486458    -0.80700
C38         C  0.94154996  0.56571005  0.51222586     1.09000
C39         C  0.94493029  0.43042890  0.49763780     1.08900
C40         C  0.97201030  0.49597918  0.40936187     1.09000
C41         C  0.96613947  0.50141882  0.60195368     1.08900
O42         O  0.04680555  0.53078829  0.55984007    -0.80700
O43         O  0.05522308  0.46972932  0.45160987    -0.80800
O44         O  0.04138710  0.56766849  0.48714564    -0.80700
O45         O  0.04491866  0.43119352  0.52643057    -0.80700
O46         O  0.01759554  0.41106161  0.47997009    -0.80700
O47         O  0.00872910  0.58458825  0.53328555    -0.80700
O48         O  0.03839406  0.47771204  0.58361269    -0.80700
O49         O  0.04341706  0.52340919  0.42893725    -0.80700
Co50       Co  0.99570939  0.53113295  0.54589091     1.51500
Co51       Co  0.00418991  0.46204695  0.46840788     1.51700
Co52       Co  0.00342820  0.54117604  0.46240351     1.51600
Co53       Co  0.00302578  0.45885533  0.54710872     1.51500
O54         O  0.00806346  0.50091979  0.50388317    -1.42600
C55         C  0.05231251  0.50905842  0.58543711     1.08900
C56         C  0.06111070  0.49421482  0.42755732     1.09000
C57         C  0.02976702  0.59291076  0.50599881     1.09000
C58         C  0.03978240  0.40604867  0.50484273     1.08900
O59         O  0.47235270  0.51095672  0.05742281    -0.80700
O60         O  0.54136466  0.48091020  0.05903247    -0.80700
O61         O  0.48478737  0.41448639  0.01857990    -0.80700
O62         O  0.53493741  0.57197022  0.01202142    -0.80700
O63         O  0.53920559  0.40753213  0.04240502    -0.80800
O64         O  0.47967786  0.58387044  0.03393518    -0.80700
O65         O  0.58052769  0.51624643  0.02794442    -0.80700
O66         O  0.43812880  0.47161641  0.03122928    -0.80700
C67         C  0.44281118  0.49265544  0.05697223     1.09000
C68         C  0.57114736  0.49898804  0.05723505     1.08900
C69         C  0.50683987  0.39535183  0.03769408     1.09000
C70         C  0.51375376  0.59280157  0.02992226     1.08900
O71         O  0.48427434  0.56672932  0.96504008    -0.80700
O72         O  0.53689867  0.42220012  0.97275143    -0.80800
O73         O  0.44575784  0.49472541  0.95581855    -0.80700
O74         O  0.57753825  0.49230231  0.95398641    -0.80700
O75         O  0.58841431  0.45692316  0.00036404    -0.80700
O76         O  0.42772557  0.53088568  0.99691498    -0.80700
O77         O  0.53501131  0.55100907  0.93747518    -0.80700
O78         O  0.48920099  0.43688578  0.94268772    -0.80700
Co79       Co  0.48203130  0.53714492  0.01102124     1.51500
Co80       Co  0.53442765  0.45293539  0.01587246     1.51700
Co81       Co  0.46757303  0.45750347  0.98663504     1.51600
Co82       Co  0.55411645  0.52995233  0.98252868     1.51500
O83         O  0.50993761  0.49466012  0.99149567    -1.42600
C84         C  0.50762626  0.57123981  0.93952675     1.08900
C85         C  0.51697900  0.41770457  0.94650642     1.09000
C86         C  0.41965874  0.51007704  0.97147037     1.09000
C87         C  0.59949205  0.47232691  0.97060268     1.08900
C88         C  0.58386491  0.92379143  0.76052250     0.02600
C89         C  0.56577237  0.92435036  0.72752730    -0.13600
C90         C  0.56898457  0.89514485  0.70421795     0.00100
C91         C  0.59106115  0.86588375  0.71362998    -0.12100
C92         C  0.61198004  0.86621937  0.74446178     0.02600
C93         C  0.60824038  0.89531301  0.76749192    -0.11500
H94         H  0.54955407  0.94746615  0.71971196     0.08200
H95         H  0.59278696  0.84321675  0.69599205     0.05700
H96         H  0.62445824  0.89562966  0.79114863     0.05500
C97         C  0.75780139  0.71432144  0.79963810     0.02600
C98         C  0.78825301  0.71582504  0.77542706    -0.13600
C99         C  0.78948529  0.74087461  0.74616417     0.00100
C100        C  0.76152533  0.76615702  0.74257856    -0.12100
C101        C  0.72968311  0.76353027  0.76497328     0.02600
C102        C  0.72808914  0.73706182  0.79327173    -0.11500
H103        H  0.81028894  0.69673372  0.77854912     0.08200
H104        H  0.76421998  0.78692886  0.72128189     0.05700
H105        H  0.70350428  0.73356794  0.81025067     0.05500
C106        C  0.92142504  0.70485658  0.57615450     0.02600
C107        C  0.89726860  0.70637513  0.60619737    -0.13600
C108        C  0.89273575  0.73830518  0.62485900     0.00100
C109        C  0.91097647  0.77009936  0.61178600    -0.12100
C110        C  0.93482351  0.77006560  0.58127146     0.02600
C111        C  0.94006354  0.73714042  0.56337125    -0.11500
H112        H  0.88221137  0.68206988  0.61561467     0.08200
H113        H  0.90633039  0.79524865  0.62526491     0.05700
H114        H  0.95828530  0.73670325  0.53980674     0.05500
C115        C  0.78696815  0.57602867  0.96152110     0.02600
C116        C  0.77972397  0.60605819  0.93868761    -0.13600
C117        C  0.75098929  0.60494874  0.91510236     0.00100
C118        C  0.72606326  0.57567825  0.91750334    -0.12100
C119        C  0.73239011  0.54484125  0.93988481     0.02600
C120        C  0.76404093  0.54486602  0.96062251    -0.11500
H121        H  0.79748949  0.62991947  0.93781553     0.08200
H122        H  0.70197941  0.57723976  0.90150377     0.05700
H123        H  0.77100696  0.52062030  0.97591181     0.05500
C124        C  0.31258823  0.25230694  0.73485787     0.02600
C125        C  0.28308265  0.25254312  0.71161368    -0.13600
C126        C  0.25083306  0.27147643  0.71966567     0.00100
C127        C  0.25059031  0.29427008  0.74915316    -0.12100
C128        C  0.28116278  0.29696061  0.77085468     0.02600
C129        C  0.31166668  0.27510194  0.76424703    -0.11500
H130        H  0.28482645  0.23643208  0.68794141     0.08200
H131        H  0.22634645  0.30943751  0.75601938     0.05700
H132        H  0.33423157  0.27535487  0.78234186     0.05500
C133        C  0.28416901  0.44691535  0.92417897     0.02600
C134        C  0.29264166  0.42436126  0.89528419    -0.13600
C135        C  0.26742487  0.39801032  0.88500676     0.00100
C136        C  0.23344805  0.39453166  0.90310580    -0.12100
C137        C  0.22302856  0.41873491  0.92950613     0.02600
C138        C  0.24887473  0.44448468  0.94071805    -0.11500
H139        H  0.31966121  0.42587320  0.88224355     0.08200
H140        H  0.21443009  0.37344435  0.89565845     0.05700
H141        H  0.24191963  0.46185166  0.96262705     0.05500
C142        C  0.43683129  0.08206588  0.76198922     0.02600
C143        C  0.45722525  0.07192928  0.73148602    -0.13600
C144        C  0.46004659  0.09495594  0.70016433     0.00100
C145        C  0.44215275  0.12879111  0.70083848    -0.12100
C146        C  0.41838263  0.13694771  0.72980719     0.02600
C147        C  0.41671914  0.11398733  0.76052868    -0.11500
H148        H  0.47113839  0.04623186  0.73269835     0.08200
H149        H  0.44525192  0.14824939  0.67845207     0.05700
H150        H  0.39977176  0.12113723  0.78361439     0.05500
C151        C  0.08362990  0.21643607  0.59824173     0.02600
C152        C  0.10678098  0.22394512  0.62621306    -0.13600
C153        C  0.12626919  0.25715628  0.62662338     0.00100
C154        C  0.11951403  0.28412005  0.59998286    -0.12100
C155        C  0.09571538  0.27764816  0.57181222     0.02600
C156        C  0.07880381  0.24296007  0.57086722    -0.11500
H157        H  0.11049335  0.20318257  0.64710132     0.08200
H158        H  0.13313937  0.31009103  0.60116319     0.05700
H159        H  0.06204052  0.23606527  0.54868942     0.05500
O160        O  0.46428999  0.03095738  0.92727674    -0.80700
O161        O  0.47240917  0.97656186  0.05068063    -0.80700
O162        O  0.46271171  0.93889399  0.96569023    -0.80700
O163        O  0.45908152  0.03554224  0.01268946    -0.80700
O164        O  0.49114678  0.91689946  0.01209724    -0.80800
O165        O  0.48385390  0.07646239  0.97647933    -0.80700
O166        O  0.49571118  0.02465964  0.07435458    -0.80700
O167        O  0.47734826  0.98118602  0.90095265    -0.80700
C168        C  0.46313195  0.01233092  0.90017385     1.09000
C169        C  0.47452878  0.99691863  0.07794526     1.08900
C170        C  0.46724490  0.91300484  0.98803244     1.09000
C171        C  0.45952975  0.06758436  0.00013904     1.08900
O172        O  0.55956263  0.05899052  0.96325304    -0.80700
O173        O  0.56575025  0.94753137  0.99855970    -0.80800
O174        O  0.55249998  0.96766101  0.91123510    -0.80700
O175        O  0.55758744  0.99951276  0.04154456    -0.80700
O176        O  0.53794366  0.94835247  0.06752390    -0.80700
O177        O  0.53901564  0.02482275  0.89975978    -0.80700
O178        O  0.53474323  0.06611017  0.01709045    -0.80700
O179        O  0.53745245  0.91472945  0.96165958    -0.80700
Co180      Co  0.51248568  0.04384830  0.94412793     1.51500
Co181      Co  0.51922539  0.96435653  0.02099861     1.51700
Co182      Co  0.50708104  0.95394763  0.93823378     1.51600
Co183      Co  0.50823720  0.01642958  0.02408850     1.51500
O184        O  0.51249845  0.99547717  0.97432822    -1.42600
C185        C  0.55665481  0.07737811  0.99117450     1.08900
C186        C  0.56302428  0.91798778  0.98330614     1.09000
C187        C  0.55400426  0.99548334  0.89065236     1.09000
C188        C  0.55808828  0.97695561  0.06873085     1.08900
C189        C  0.27699707  0.75054227  0.79568697     0.02600
C190        C  0.27490561  0.78235403  0.77386940    -0.13600
C191        C  0.24590745  0.78677473  0.75042415     0.00100
C192        C  0.21776297  0.76015047  0.75090564    -0.12100
C193        C  0.21989720  0.72758149  0.77208655     0.02600
C194        C  0.25063964  0.72283233  0.79329259    -0.11500
H195        H  0.29642596  0.80291631  0.77421114     0.08200
H196        H  0.19487493  0.76455928  0.73366162     0.05700
H197        H  0.25472963  0.69728232  0.80774048     0.05500
C198        C  0.45331784  0.71090311  0.91112419     0.02600
C199        C  0.46183950  0.74481937  0.92643216    -0.13600
C200        C  0.43486033  0.77177069  0.93082866     0.00100
C201        C  0.40084149  0.76649452  0.91512758    -0.12100
C202        C  0.39376302  0.73596568  0.89545984     0.02600
C203        C  0.41864403  0.70762725  0.89558909    -0.11500
H204        H  0.48927031  0.75125639  0.93400899     0.08200
H205        H  0.38003761  0.78702713  0.91663223     0.05700
H206        H  0.41004573  0.68306134  0.88319139     0.05500
C207        C  0.20664102  0.93702225  0.59873856     0.02600
C208        C  0.23498073  0.93756841  0.57177966    -0.13600
C209        C  0.26929454  0.92134690  0.57792959     0.00100
C210        C  0.27420426  0.90509623  0.61240820    -0.12100
C211        C  0.24516443  0.90084369  0.63807341     0.02600
C212        C  0.21195698  0.91811903  0.63163548    -0.11500
H213        H  0.22949191  0.95016223  0.54588963     0.08200
H214        H  0.30050365  0.89467062  0.61962354     0.05700
H215        H  0.18982061  0.91579595  0.65176787     0.05500
C216        C  0.07211784  0.57081151  0.72548982     0.02600
C217        C  0.04563102  0.56747162  0.75416208    -0.13600
C218        C  0.05071040  0.58534571  0.78686523     0.00100
C219        C  0.08290732  0.60671750  0.78933093    -0.12100
C220        C  0.10798007  0.61292674  0.76006558     0.02600
C221        C  0.10326989  0.59302455  0.72909588    -0.11500
H222        H  0.02107219  0.55150218  0.75038670     0.08200
H223        H  0.08853029  0.61903509  0.81431273     0.05700
H224        H  0.12349366  0.59536399  0.70713040     0.05500
C225        C  0.73604461  0.26960027  0.23280704     0.02600
C226        C  0.70804811  0.24330444  0.23455240    -0.13600
C227        C  0.70859049  0.21382298  0.25975107     0.00100
C228        C  0.73575322  0.21349378  0.28575191    -0.12100
C229        C  0.76348160  0.24060847  0.28509489     0.02600
C230        C  0.76411017  0.26739525  0.25714855    -0.11500
H231        H  0.68625668  0.24548508  0.21562288     0.08200
H232        H  0.73537956  0.19207626  0.30624041     0.05700
H233        H  0.78616662  0.28744247  0.25454783     0.05500
C234        C  0.90637256  0.29553265  0.43505590     0.02600
C235        C  0.93494335  0.27023772  0.43488002    -0.13600
C236        C  0.93156119  0.23704721  0.41706483     0.00100
C237        C  0.90011053  0.23182857  0.39698416    -0.12100
C238        C  0.87260534  0.25811592  0.39452250     0.02600
C239        C  0.87477470  0.28831898  0.41630123    -0.11500
H240        H  0.95970051  0.27677630  0.44849372     0.08200
H241        H  0.89676895  0.20685588  0.38339993     0.05700
H242        H  0.85248351  0.30725079  0.41773847     0.05500
C243        C  0.76685290  0.42973937  0.08373537     0.02600
C244        C  0.73552995  0.45211861  0.08278768    -0.13600
C245        C  0.70513234  0.44553148  0.10749830     0.00100
C246        C  0.70752203  0.41685052  0.13325172    -0.12100
C247        C  0.73712149  0.39341094  0.13303586     0.02600
C248        C  0.76612001  0.39949904  0.10799149    -0.11500
H249        H  0.73488908  0.47418249  0.06286844     0.08200
H250        H  0.68574650  0.41187780  0.15339764     0.05700
H251        H  0.78909313  0.38122652  0.10842678     0.05500
C252        C  0.55508930  0.05521993  0.26040789     0.02600
C253        C  0.55668400  0.03545636  0.22892724    -0.13600
C254        C  0.58560217  0.04114978  0.20354365     0.00100
C255        C  0.61310057  0.06710091  0.20971461    -0.12100
C256        C  0.60981624  0.09031404  0.23889183     0.02600
C257        C  0.58061302  0.08363257  0.26421922    -0.11500
H258        H  0.53536752  0.01566064  0.22418249     0.08200
H259        H  0.63637204  0.06962314  0.19098650     0.05700
H260        H  0.57776581  0.10022958  0.28744128     0.05500
O261        O  0.94480445  0.54230531  0.99818775    -0.80700
O262        O  0.09447702  0.50320804  0.02537804    -0.80700
O263        O  0.00393496  0.55574670  0.04868536    -0.80700
O264        O  0.01233223  0.55302122  0.94790164    -0.80700
O265        O  0.04252859  0.51968596  0.07602026    -0.80800
O266        O  0.96687535  0.51784518  0.93462607    -0.80700
O267        O  0.07758609  0.54661421  0.98745991    -0.80700
O268        O  0.92969012  0.53818524  0.05596216    -0.80700
C269        C  0.92301519  0.55016605  0.02451962     1.09000
C270        C  0.10157250  0.53246941  0.00746909     1.08900
C271        C  0.02489151  0.54948175  0.07445904     1.09000
C272        C  0.98816858  0.54466368  0.92594836     1.08900
O273        O  0.98034915  0.44663847  0.96282418    -0.80700
O274        O  0.00779060  0.44883894  0.06473751    -0.80800
O275        O  0.93725336  0.47040447  0.03214760    -0.80700
O276        O  0.08176493  0.47351808  0.96611538    -0.80700
O277        O  0.06075549  0.43662688  0.01089395    -0.80700
O278        O  0.91298946  0.47880256  0.97955379    -0.80700
O279        O  0.02063067  0.47763711  0.92769976    -0.80700
O280        O  0.97893218  0.49264067  0.08794639    -0.80700
Co281      Co  0.96423267  0.49230326  0.98406999     1.51500
Co282      Co  0.04879511  0.47742978  0.04215643     1.51700
Co283      Co  0.97242699  0.51444676  0.03774414     1.51600
Co284      Co  0.04578670  0.51289276  0.96024071     1.51500
O285        O  0.01444372  0.49832053  0.00496781    -1.42600
C286        C  0.99792876  0.45093985  0.93279670     1.08900
C287        C  0.99593714  0.46343534  0.09273823     1.09000
C288        C  0.90914858  0.46763667  0.01232602     1.09000
C289        C  0.08228631  0.44339651  0.98386902     1.08900
C290        C  0.22247475  0.05862253  0.42720871     0.02600
C291        C  0.25709683  0.05264095  0.44269322    -0.13600
C292        C  0.28642536  0.07834476  0.43690607     0.00100
C293        C  0.28076710  0.10983090  0.41558699    -0.12100
C294        C  0.24684978  0.11615817  0.40060074     0.02600
C295        C  0.21766187  0.09191368  0.40832551    -0.11500
H296        H  0.26165822  0.02794989  0.45826180     0.08200
H297        H  0.30330167  0.12883155  0.40946141     0.05700
H298        H  0.19117262  0.09893804  0.39826574     0.05500
C299        C  0.24523215  0.22448322  0.28512396     0.02600
C300        C  0.22076553  0.25329578  0.28274870    -0.13600
C301        C  0.22730099  0.28255668  0.25773608     0.00100
C302        C  0.25732499  0.28056036  0.23299705    -0.12100
C303        C  0.27968355  0.24992453  0.23287744     0.02600
C304        C  0.27440860  0.22276896  0.25993377    -0.11500
H305        H  0.19675961  0.25269329  0.30062922     0.08200
H306        H  0.26334079  0.30251538  0.21342786     0.05700
H307        H  0.29269557  0.19989334  0.26105839     0.05500
C308        C  0.07826827  0.44014848  0.22259409     0.02600
C309        C  0.07392904  0.45972412  0.25427797    -0.13600
C310        C  0.09675948  0.45259930  0.28330723     0.00100
C311        C  0.12511069  0.42782005  0.27963282    -0.12100
C312        C  0.12779369  0.40547470  0.24998846     0.02600
C313        C  0.10345624  0.41146095  0.22192817    -0.11500
H314        H  0.05252834  0.47958641  0.25671557     0.08200
H315        H  0.14340213  0.42417737  0.30169953     0.05700
H316        H  0.10363564  0.39370728  0.19947115     0.05500
C317        C  0.44155222  0.25640459  0.08517783     0.02600
C318        C  0.41599803  0.25850128  0.11392930    -0.13600
C319        C  0.39217044  0.22933721  0.12316749     0.00100
C320        C  0.39447354  0.19728471  0.10422314    -0.12100
C321        C  0.42128032  0.19389114  0.07659149     0.02600
C322        C  0.44449845  0.22392030  0.06680500    -0.11500
H323        H  0.41318930  0.28370978  0.12779813     0.08200
H324        H  0.37549005  0.17498659  0.11109414     0.05700
H325        H  0.46387992  0.22251245  0.04424108     0.05500
C326        C  0.77972584  0.26018578  0.74205974     0.02600
C327        C  0.78091482  0.23422304  0.71489365    -0.13600
C328        C  0.74929686  0.21389635  0.70714444     0.00100
C329        C  0.71662855  0.21902840  0.72680408    -0.12100
C330        C  0.71474783  0.24341821  0.75463402     0.02600
C331        C  0.74616375  0.26442689  0.76138707    -0.11500
H332        H  0.80622331  0.22947941  0.69993452     0.08200
H333        H  0.69245033  0.20347115  0.72037481     0.05700
H334        H  0.74445396  0.28405410  0.78206107     0.05500
C335        C  0.92472175  0.42665581  0.73895221     0.02600
C336        C  0.89913484  0.39809175  0.73587583    -0.13600
C337        C  0.89395573  0.37052661  0.76294573     0.00100
C338        C  0.91262091  0.37424767  0.79528807    -0.12100
C339        C  0.93529277  0.40486864  0.80066901     0.02600
C340        C  0.94207123  0.43031660  0.77172193    -0.11500
H341        H  0.88399289  0.39702675  0.71147712     0.08200
H342        H  0.90962002  0.35335437  0.81646006     0.05700
H343        H  0.96120590  0.45272316  0.77447287     0.05500
C344        C  0.58438679  0.21656933  0.92631541     0.02600
C345        C  0.56637033  0.24949764  0.93369362    -0.13600
C346        C  0.56227385  0.27668805  0.90627595     0.00100
C347        C  0.57682104  0.27104640  0.87172821    -0.12100
C348        C  0.59815659  0.24085769  0.86456231     0.02600
C349        C  0.60008869  0.21311935  0.89140299    -0.11500
H350        H  0.55614007  0.25444342  0.96063993     0.08200
H351        H  0.57337455  0.29173176  0.85069727     0.05700
H352        H  0.61449577  0.18889988  0.88505613     0.05500
C353        C  0.69909663  0.07423057  0.55503224     0.02600
C354        C  0.72977424  0.05139704  0.54879803    -0.13600
C355        C  0.76175950  0.05465754  0.56929351     0.00100
C356        C  0.76178411  0.07961785  0.59684958    -0.12100
C357        C  0.73333945  0.10388939  0.60160702     0.02600
C358        C  0.70277164  0.10194514  0.57996591    -0.11500
H359        H  0.72905447  0.03178273  0.52791871     0.08200
H360        H  0.78555264  0.08193977  0.61333577     0.05700
H361        H  0.68147248  0.12178220  0.58315101     0.05500
C362        C  0.74430521  0.75335455  0.21952841     0.02600
C363        C  0.74657305  0.78226895  0.24306498    -0.13600
C364        C  0.77451189  0.78373283  0.26812533     0.00100
C365        C  0.80083181  0.75623176  0.26895912    -0.12100
C366        C  0.79835798  0.72603306  0.24681247     0.02600
C367        C  0.76958032  0.72498559  0.22237538    -0.11500
H368        H  0.72682298  0.80386622  0.24162864     0.08200
H369        H  0.82341714  0.75872889  0.28678650     0.05700
H370        H  0.76687861  0.70222183  0.20505848     0.05500
C371        C  0.73294196  0.94249542  0.40050961     0.02600
C372        C  0.73942974  0.91101543  0.38127113    -0.13600
C373        C  0.77396254  0.90469019  0.36504399     0.00100
C374        C  0.80371506  0.92798390  0.37249919    -0.12100
C375        C  0.79831208  0.95927192  0.39307456     0.02600
C376        C  0.76188819  0.96763235  0.40346725    -0.11500
H377        H  0.71734438  0.89149191  0.37840485     0.08200
H378        H  0.83090401  0.92116474  0.36273310     0.05700
H379        H  0.75589012  0.99330213  0.41527542     0.05500
C380        C  0.96646752  0.58890855  0.21189520     0.02600
C381        C  0.94160799  0.61768525  0.21642425    -0.13600
C382        C  0.91435010  0.61672501  0.24430480     0.00100
C383        C  0.91697352  0.59005886  0.27224683    -0.12100
C384        C  0.94448011  0.56381471  0.27107568     0.02600
C385        C  0.96654205  0.56143041  0.23947922    -0.11500
H386        H  0.94270618  0.64090436  0.19781272     0.08200
H387        H  0.89820643  0.59001843  0.29540014     0.05700
H388        H  0.98383215  0.53811388  0.23715814     0.05500
C389        C  0.60309753  0.78640199  0.06039451     0.02600
C390        C  0.63119262  0.78390473  0.08567592    -0.13600
C391        C  0.63324157  0.75384743  0.11005901     0.00100
C392        C  0.60902413  0.72420396  0.10678311    -0.12100
C393        C  0.58138111  0.72541287  0.08137065     0.02600
C394        C  0.57722251  0.75737647  0.06019861    -0.11500
H395        H  0.65162760  0.80533049  0.08691749     0.08200
H396        H  0.61225701  0.69977933  0.12343964     0.05700
H397        H  0.55425535  0.75875037  0.04274024     0.05500
C398        C  0.20605551  0.74149653  0.26765327     0.02600
C399        C  0.23444841  0.76776432  0.26451300    -0.13600
C400        C  0.26327801  0.76455510  0.23907898     0.00100
C401        C  0.26349414  0.73537755  0.21632135    -0.12100
C402        C  0.23565600  0.70882474  0.21916483     0.02600
C403        C  0.20676598  0.71180365  0.24487084    -0.11500
H404        H  0.23448766  0.79031569  0.28237057     0.08200
H405        H  0.28590121  0.73293642  0.19669720     0.05700
H406        H  0.18530315  0.69112812  0.24733180     0.05500
C407        C  0.42611382  0.89767823  0.27263558     0.02600
C408        C  0.43583626  0.92279479  0.24418000    -0.13600
C409        C  0.42218217  0.91882946  0.20922173     0.00100
C410        C  0.39584636  0.89089779  0.20482001    -0.12100
C411        C  0.38342671  0.86819667  0.23406959     0.02600
C412        C  0.39956416  0.87103327  0.26727740    -0.11500
H413        H  0.45369432  0.94541786  0.24970095     0.08200
H414        H  0.38467448  0.88658273  0.17877066     0.05700
H415        H  0.39072503  0.85274563  0.28953316     0.05500
C416        C  0.05003391  0.79305616  0.41417308     0.02600
C417        C  0.07548269  0.78901839  0.38508539    -0.13600
C418        C  0.09711370  0.75791011  0.38293980     0.00100
C419        C  0.09139487  0.72957071  0.40869683    -0.12100
C420        C  0.06575446  0.73253398  0.43732245     0.02600
C421        C  0.04649522  0.76487165  0.44091000    -0.11500
H422        H  0.07886152  0.81015318  0.36416619     0.08200
H423        H  0.10609743  0.70445614  0.40577521     0.05700
H424        H  0.02783596  0.76731258  0.46387210     0.05500
C425        C  0.30321544  0.55871204  0.08480220     0.02600
C426        C  0.27616323  0.55289903  0.05910615    -0.13600
C427        C  0.24055029  0.56736587  0.06352271     0.00100
C428        C  0.23341055  0.58902359  0.09303531    -0.12100
C429        C  0.26068731  0.59768700  0.11672501     0.02600
C430        C  0.29489816  0.58116780  0.11363117    -0.11500
H431        H  0.28297615  0.53716693  0.03592633     0.08200
H432        H  0.20639184  0.60010642  0.09750535     0.05700
H433        H  0.31533968  0.58655312  0.13320794     0.05500
O434        O  0.97349594  0.94150360  0.53231673    -0.80700
O435        O  0.03599080  0.08694761  0.52558189    -0.80700
O436        O  0.04212372  0.98626469  0.55627342    -0.80700
O437        O  0.93651574  0.01320589  0.55145526    -0.80700
O438        O  0.07707218  0.02658418  0.52525526    -0.80800
O439        O  0.91511910  0.98223041  0.50892441    -0.80700
O440        O  0.99041680  0.06618595  0.56188140    -0.80700
O441        O  0.02831178  0.91885401  0.52596285    -0.80700
C442        C  0.99465826  0.91391719  0.53541344     1.09000
C443        C  0.01854243  0.08654617  0.55576547     1.08900
C444        C  0.07243421  0.00375933  0.55191700     1.09000
C445        C  0.90898472  0.99935523  0.53740565     1.08900
O446        O  0.95508439  0.00594511  0.44489396    -0.80700
O447        O  0.05880256  0.01626221  0.45057905    -0.80800
O448        O  0.01017171  0.94937224  0.46174544    -0.80700
O449        O  0.97611109  0.09786002  0.49334261    -0.80700
O450        O  0.01565795  0.07940397  0.45222041    -0.80700
O451        O  0.95212001  0.93235228  0.46432324    -0.80700
O452        O  0.92560994  0.04436247  0.47892887    -0.80700
O453        O  0.07321194  0.97232433  0.48753160    -0.80700
Co454      Co  0.96708546  0.97587473  0.48750181     1.51500
Co455      Co  0.04380333  0.05008436  0.48830198     1.51700
Co456      Co  0.02212606  0.96931093  0.51109928     1.51600
Co457      Co  0.95962927  0.05278744  0.52100920     1.51500
O458        O  0.99889254  0.01845719  0.50285648    -1.42600
C459        C  0.92790247  0.02619053  0.45016687     1.08900
C460        C  0.08208701  0.99325431  0.46061686     1.09000
C461        C  0.98483853  0.92712469  0.45299813     1.09000
C462        C  0.99397443  0.10331841  0.46383202     1.08900
C463        C  0.02883680  0.82742628  0.41744418    -0.06700
C464        C  0.04686097  0.86064608  0.40824241    -0.17800
C465        C  0.03029340  0.89386910  0.41425509     0.10500
C466        C  0.99588586  0.89469929  0.43297000    -0.06600
C467        C  0.97646311  0.86182272  0.43964936    -0.17800
C468        C  0.99191025  0.82845424  0.43087380     0.10600
S469        S  0.05499273  0.93421555  0.39760319    -0.32800
S470        S  0.96251553  0.78871094  0.43672565    -0.32800
H471        H  0.97934857  0.76986709  0.40862181     0.28600
H472        H  0.02350176  0.95515957  0.39288193     0.28600
H473        H  0.07462055  0.86105765  0.39701229     0.19100
H474        H  0.94965271  0.86189466  0.45308765     0.19200
C475        C  0.23806945  0.67843539  0.19458448    -0.06700
C476        C  0.23416440  0.68653827  0.15788599    -0.17800
C477        C  0.24239151  0.66109086  0.13215233     0.10500
C478        C  0.25349913  0.62589287  0.14323387    -0.06600
C479        C  0.25676137  0.61747515  0.18005816    -0.17800
C480        C  0.24976194  0.64355440  0.20579078     0.10600
S481        S  0.24020893  0.67609897  0.08555140    -0.32800
S482        S  0.25736372  0.63104902  0.25218814    -0.32800
H483        H  0.26983229  0.66538275  0.26214070     0.28600
H484        H  0.27013737  0.65578357  0.07333522     0.28600
H485        H  0.22632753  0.71362804  0.14910790     0.19100
H486        H  0.26531203  0.59061267  0.18874640     0.19200
C487        C  0.17712701  0.74470593  0.29629520    -0.06700
C488        C  0.18762884  0.74253355  0.33216480    -0.17800
C489        C  0.16241559  0.74755487  0.36063586     0.10500
C490        C  0.12528252  0.75432242  0.35346052    -0.06600
C491        C  0.11466522  0.75627607  0.31751988    -0.17800
C492        C  0.14015146  0.75182324  0.28893290     0.10600
S493        S  0.17978546  0.74608827  0.40541689    -0.32800
S494        S  0.12389014  0.75616232  0.24382973    -0.32800
H495        H  0.15660958  0.77071589  0.22781547     0.28600
H496        H  0.15595683  0.77221088  0.41912624     0.28600
H497        H  0.21601174  0.73748344  0.33801443     0.19100
H498        H  0.08628813  0.76130129  0.31168846     0.19200
C499        C  0.29431316  0.79068591  0.23712016    -0.06700
C500        C  0.28846330  0.82647347  0.22480697    -0.17800
C501        C  0.31719989  0.85216447  0.22231750     0.10500
C502        C  0.35292157  0.84158774  0.23132291    -0.06600
C503        C  0.35877986  0.80539390  0.24259179    -0.17800
C504        C  0.32989193  0.78010309  0.24619067     0.10600
S505        S  0.30600920  0.89818182  0.20928661    -0.32800
S506        S  0.33997169  0.73519396  0.26384112    -0.32800
H507        H  0.30598067  0.72890456  0.28213207     0.28600
H508        H  0.32881080  0.91462702  0.23384140     0.28600
H509        H  0.26116236  0.83458852  0.21773653     0.19100
H510        H  0.38593298  0.79713497  0.25002750     0.19200
C511        C  0.83033359  0.98214940  0.40509223    -0.06700
C512        C  0.86271568  0.98637748  0.38326725    -0.17800
C513        C  0.89435676  0.00414809  0.39528939     0.10500
C514        C  0.89393781  0.01951371  0.42959991    -0.06600
C515        C  0.86050742  0.01904109  0.44932361    -0.17800
C516        C  0.83000441  0.99908815  0.43886751     0.10600
S517        S  0.93457718  0.00606651  0.36579064    -0.32800
S518        S  0.79442076  0.99203855  0.47315961    -0.32800
H519        H  0.79202851  0.95429810  0.46890717     0.28600
H520        H  0.94951059  0.03772844  0.37988897     0.28600
H521        H  0.86388563  0.97508791  0.35684139     0.19100
H522        H  0.85926552  0.03054687  0.47565030     0.19200
C523        C  0.71620609  0.75333405  0.19115427    -0.06700
C524        C  0.67878180  0.75173058  0.20142374    -0.17800
C525        C  0.65138762  0.75183843  0.17573697     0.10500
C526        C  0.66123229  0.75330535  0.13854077    -0.06600
C527        C  0.69865040  0.75480012  0.12829611    -0.17800
C528        C  0.72602079  0.75496760  0.15395620     0.10600
S529        S  0.60433713  0.75088886  0.19224870    -0.32800
S530        S  0.77300923  0.75810712  0.13736357    -0.32800
H531        H  0.78585692  0.77885593  0.16536836     0.28600
H532        H  0.59080790  0.77261205  0.16398968     0.28600
H533        H  0.67081131  0.75055657  0.22975560     0.19100
H534        H  0.70664152  0.75606474  0.09996862     0.19200
C535        C  0.82683636  0.69671660  0.24738687    -0.06700
C536        C  0.83910537  0.68245382  0.21462674    -0.17800
C537        C  0.86577639  0.65531735  0.21303501     0.10500
C538        C  0.88389304  0.64407066  0.24463763    -0.06600
C539        C  0.87151968  0.65823937  0.27744495    -0.17800
C540        C  0.84238917  0.68270376  0.27936431     0.10600
S541        S  0.87373390  0.63349511  0.17078893    -0.32800
S542        S  0.82471671  0.69229394  0.32376857    -0.32800
H543        H  0.78801837  0.69479254  0.31378924     0.28600
H544        H  0.84717832  0.65198437  0.15104706     0.28600
H545        H  0.82749479  0.69240712  0.18989873     0.19100
H546        H  0.88400220  0.64959475  0.30220977     0.19200
C547        C  0.77606213  0.81400225  0.29366844    -0.06700
C548        C  0.78746113  0.84885089  0.28078578    -0.17800
C549        C  0.78821150  0.87851749  0.30351665     0.10500
C550        C  0.77790858  0.87352100  0.34047091    -0.06600
C551        C  0.76737271  0.83837021  0.35343005    -0.17800
C552        C  0.76610781  0.80886181  0.33060633     0.10600
S553        S  0.80096526  0.92230744  0.28322178    -0.32800
S554        S  0.75059414  0.76554471  0.35022407    -0.32800
H555        H  0.73419268  0.75283762  0.31942375     0.28600
H556        H  0.77541708  0.94206316  0.30335676     0.28600
H557        H  0.79514311  0.85314755  0.25254991     0.19100
H558        H  0.75909217  0.83404424  0.38151947     0.19200
C559        C  0.87100408  0.01197503  0.54742106    -0.06700
C560        C  0.84069511  0.98761332  0.55092927    -0.17800
C561        C  0.80462211  0.99987397  0.55854165     0.10500
C562        C  0.79798841  0.03763350  0.56000060    -0.06600
C563        C  0.82819894  0.06156311  0.55549821    -0.17800
C564        C  0.86410031  0.04951511  0.55070190     0.10600
S565        S  0.76858316  0.96612642  0.56587545    -0.32800
S566        S  0.90025955  0.08356049  0.54734854    -0.32800
H567        H  0.87949897  0.11352145  0.55760020     0.28600
H568        H  0.74630371  0.98669422  0.58862139     0.28600
H569        H  0.84514873  0.95883887  0.54841763     0.19100
H570        H  0.82351642  0.09047072  0.55624412     0.19200
C571        C  0.74908952  0.18605098  0.67934962    -0.06700
C572        C  0.74158903  0.14980385  0.69073572    -0.17800
C573        C  0.73533279  0.12284265  0.66607192     0.10500
C574        C  0.73677661  0.13197217  0.62885328    -0.06600
C575        C  0.74508942  0.16800588  0.61732990    -0.17800
C576        C  0.75098479  0.19513371  0.64209500     0.10600
S577        S  0.72522974  0.07739799  0.68386167    -0.32800
S578        S  0.76023287  0.24073921  0.62443987    -0.32800
H579        H  0.74219161  0.25858612  0.65247277     0.28600
H580        H  0.70297564  0.06693148  0.65588961     0.28600
H581        H  0.73957387  0.14266063  0.71925807     0.19100
H582        H  0.74697822  0.17504141  0.58879054     0.19200
C583        C  0.62284905  0.24149740  0.83149895    -0.06700
C584        C  0.64008018  0.27471874  0.82001801    -0.17800
C585        C  0.66713670  0.27671247  0.79248237     0.10500
C586        C  0.68084074  0.24435015  0.77835846    -0.06600
C587        C  0.66244399  0.21136659  0.78847806    -0.17800
C588        C  0.63249736  0.20996869  0.81306621     0.10600
S589        S  0.68130042  0.32151761  0.77562313    -0.32800
S590        S  0.60680492  0.16769163  0.81776364    -0.32800
H591        H  0.57344742  0.18358185  0.82801403     0.28600
H592        H  0.68983427  0.31098442  0.74042969     0.28600
H593        H  0.63288271  0.29967505  0.83273342     0.19100
H594        H  0.67135035  0.18617507  0.77725147     0.19200
C595        C  0.81248244  0.28427448  0.74908907    -0.06700
C596        C  0.83567111  0.29678263  0.72002673    -0.17800
C597        C  0.86438693  0.32211374  0.72437189     0.10500
C598        C  0.86803153  0.33885932  0.75785889    -0.06600
C599        C  0.84599917  0.32512773  0.78721612    -0.17800
C600        C  0.82023823  0.29687870  0.78369593     0.10600
S601        S  0.89769389  0.33017724  0.68763738    -0.32800
S602        S  0.80090161  0.27640719  0.82507170    -0.32800
H603        H  0.79638837  0.24160586  0.81141569     0.28600
H604        H  0.88165057  0.30727714  0.66301225     0.28600
H605        H  0.83131084  0.28684746  0.69355836     0.19100
H606        H  0.84906620  0.33605692  0.81353132     0.19200
C607        C  0.30821228  0.24547300  0.20419947    -0.06700
C608        C  0.34439133  0.23922048  0.21410603    -0.17800
C609        C  0.37204613  0.23283796  0.18829483     0.10500
C610        C  0.36365360  0.23334393  0.15161908    -0.06600
C611        C  0.32766931  0.23984354  0.14155017    -0.17800
C612        C  0.29978574  0.24540920  0.16738508     0.10600
S613        S  0.41742186  0.22408970  0.20378417    -0.32800
S614        S  0.25397846  0.25094056  0.15163442    -0.32800
H615        H  0.23637426  0.23162096  0.18082402     0.28600
H616        H  0.42792426  0.20107580  0.17613577     0.28600
H617        H  0.35105654  0.23894135  0.24224369     0.19100
H618        H  0.32124704  0.24032242  0.11334040     0.19200
C619        C  0.15372011  0.37417496  0.25078887    -0.06700
C620        C  0.15977436  0.35619170  0.28410450    -0.17800
C621        C  0.18558756  0.32882336  0.28760104     0.10500
C622        C  0.20229946  0.31442114  0.25641558    -0.06600
C623        C  0.19493861  0.33114220  0.22285886    -0.17800
C624        C  0.17311832  0.36195161  0.22001850     0.10600
S625        S  0.19820629  0.31677243  0.33290847    -0.32800
S626        S  0.17489378  0.38609026  0.17709655    -0.32800
H627        H  0.17646333  0.42040946  0.19232362     0.28600
H628        H  0.23544177  0.31166877  0.32380439     0.28600
H629        H  0.14540974  0.36436393  0.30831231     0.19100
H630        H  0.20735751  0.32110748  0.19843872     0.19200
C631        C  0.12103586  0.99720744  0.44639166    -0.06700
C632        C  0.12816637  0.01612359  0.41345640    -0.17800
C633        C  0.16319950  0.03045606  0.40410736     0.10500
C634        C  0.19050286  0.03171877  0.43052523    -0.06600
C635        C  0.18483158  0.00865116  0.46136529    -0.17800
C636        C  0.15149432  0.98917959  0.46770774     0.10600
S637        S  0.17172924  0.04408940  0.35741742    -0.32800
S638        S  0.15038551  0.95283865  0.50128074    -0.32800
H639        H  0.12680553  0.93042075  0.48244493     0.28600
H640        H  0.20977151  0.03862622  0.35784846     0.28600
H641        H  0.10631575  0.01965365  0.39475834     0.19100
H642        H  0.20608352  0.00562497  0.48071683     0.19200
C643        C  0.24128505  0.19671881  0.31476320    -0.06700
C644        C  0.24467361  0.20774925  0.35022606    -0.17800
C645        C  0.24549475  0.18226864  0.37908039     0.10500
C646        C  0.24313591  0.14492287  0.37232870    -0.06600
C647        C  0.23867053  0.13400194  0.33702887    -0.17800
C648        C  0.23745921  0.15938365  0.30829341     0.10600
S649        S  0.25002375  0.19900375  0.42360310    -0.32800
S650        S  0.23119421  0.14236948  0.26409205    -0.32800
H651        H  0.21318295  0.17304678  0.25029344     0.28600
H652        H  0.23212038  0.16944438  0.44210063     0.28600
H653        H  0.24761468  0.23639438  0.35534337     0.19100
H654        H  0.23668162  0.10531899  0.33175062     0.19200
C655        C  0.95263566  0.41032236  0.83610943    -0.06700
C656        C  0.98996893  0.42018380  0.83630378    -0.17800
C657        C  0.00662495  0.43104741  0.86779971     0.10500
C658        C  0.98603591  0.43046847  0.90093663    -0.06600
C659        C  0.94965233  0.41708413  0.90125356    -0.17800
C660        C  0.93248309  0.40842469  0.86941159     0.10600
S661        S  0.05343294  0.44778060  0.86425376    -0.32800
S662        S  0.88370614  0.39983064  0.87289964    -0.32800
H663        H  0.87590443  0.42024798  0.84147839     0.28600
H664        H  0.05937594  0.44348808  0.82715488     0.28600
H665        H  0.00575124  0.42102168  0.81113010     0.19100
H666        H  0.93301345  0.41706194  0.92592865     0.19200
C667        C  0.98919803  0.58627195  0.17705978    -0.06700
C668        C  0.97608000  0.60245531  0.14508467    -0.17800
C669        C  0.99252958  0.59675901  0.11128354     0.10500
C670        C  0.02015779  0.57054207  0.10783951    -0.06600
C671        C  0.03606117  0.55737642  0.13950895    -0.17800
C672        C  0.02226252  0.56640264  0.17366773     0.10600
S673        S  0.97610257  0.62332114  0.07366484    -0.32800
S674        S  0.05015829  0.55394744  0.21085086    -0.32800
H675        H  0.04275907  0.58628676  0.22833630     0.28600
H676        H  0.01003568  0.62423320  0.05443778     0.28600
H677        H  0.95204732  0.61907646  0.14556697     0.19100
H678        H  0.05888913  0.53901171  0.13780265     0.19200
C679        C  0.05656259  0.44852549  0.19005109    -0.06700
C680        C  0.01818691  0.45167596  0.19283248    -0.17800
C681        C  0.99728462  0.45710794  0.16198612     0.10500
C682        C  0.01448852  0.45622716  0.12732162    -0.06600
C683        C  0.05275922  0.45309671  0.12495602    -0.17800
C684        C  0.07380275  0.45180235  0.15546709     0.10600
S685        S  0.94897794  0.46393798  0.16865005    -0.32800
S686        S  0.12250192  0.45855117  0.14812915    -0.32800
H687        H  0.12805387  0.47579429  0.18059758     0.28600
H688        H  0.94940958  0.49723389  0.14891414     0.28600
H689        H  0.00443327  0.45018823  0.21911563     0.19100
H690        H  0.06694085  0.45449194  0.09887568     0.19200
C691        C  0.20951268  0.56023983  0.03901327    -0.06700
C692        C  0.18476282  0.58857065  0.03134650    -0.17800
C693        C  0.15007824  0.58171660  0.01741430     0.10500
C694        C  0.14018976  0.54601713  0.00911729    -0.06600
C695        C  0.16713143  0.51910489  0.01131372    -0.17800
C696        C  0.20058460  0.52516239  0.02747983     0.10600
S697        S  0.11833986  0.61847773  0.01492884    -0.32800
S698        S  0.22728278  0.48552744  0.03735926    -0.32800
H699        H  0.23141846  0.49335663  0.07368202     0.28600
H700        H  0.10522542  0.60908005  0.98143498     0.28600
H701        H  0.19138229  0.61602635  0.03863252     0.19100
H702        H  0.16026359  0.49166064  0.00423323     0.19200
C703        C  0.87303107  0.45366880  0.02893864    -0.06700
C704        C  0.84071188  0.45523398  0.00923896    -0.17800
C705        C  0.80593127  0.44610447  0.02542420     0.10500
C706        C  0.80234827  0.43859624  0.06301943    -0.06600
C707        C  0.83461914  0.43690818  0.08234436    -0.17800
C708        C  0.86944674  0.44199187  0.06575155     0.10600
S709        S  0.76813761  0.44161241  0.99618164    -0.32800
S710        S  0.90848601  0.43127127  0.09243361    -0.32800
H711        H  0.88938004  0.41577311  0.12286105     0.28600
H712        H  0.74876334  0.41507338  0.01768266     0.28600
H713        H  0.84254307  0.46288378  0.98084835     0.19100
H714        H  0.83255762  0.43068066  0.11099128     0.19200
C715        C  0.95806811  0.20625968  0.42271191    -0.06700
C716        C  0.97524854  0.20295362  0.45580871    -0.17800
C717        C  0.99274484  0.17101724  0.46647431     0.10500
C718        C  0.99013956  0.13982020  0.44585361    -0.06600
C719        C  0.97708094  0.14386442  0.41105125    -0.17800
C720        C  0.96327773  0.17742334  0.39848103     0.10600
S721        S  0.01903000  0.17045048  0.50640442    -0.32800
S722        S  0.95568388  0.18211461  0.35094113    -0.32800
H723        H  0.95953653  0.22020903  0.34918333     0.28600
H724        H  0.01180460  0.20610098  0.51645081     0.28600
H725        H  0.97374673  0.22460621  0.47448443     0.19100
H726        H  0.97702768  0.12080236  0.39385887     0.19200
C727        C  0.68291804  0.18225172  0.25599788    -0.06700
C728        C  0.67595734  0.17165831  0.22104194    -0.17800
C729        C  0.65140142  0.14340589  0.21443855     0.10500
C730        C  0.63637861  0.12133860  0.24362044    -0.06600
C731        C  0.64506695  0.13082273  0.27876286    -0.17800
C732        C  0.66594222  0.16200412  0.28525563     0.10600
S733        S  0.63793642  0.13904149  0.16861525    -0.32800
S734        S  0.66660426  0.17578165  0.33119242    -0.32800
H735        H  0.66789030  0.21326588  0.32239521     0.28600
H736        H  0.65548629  0.17057087  0.15347545     0.28600
H737        H  0.68935913  0.18624705  0.19835330     0.19100
H738        H  0.63433103  0.11472138  0.30178802     0.19200
C739        C  0.73747324  0.36202934  0.15898553    -0.06700
C740        C  0.73952449  0.32692218  0.14569930    -0.17800
C741        C  0.73906693  0.29618338  0.16900352     0.10500
C742        C  0.73581171  0.30054739  0.20647622    -0.06600
C743        C  0.73350688  0.33558620  0.21971233    -0.17800
C744        C  0.73468503  0.36629295  0.19652835     0.10600
S745        S  0.74347833  0.25242376  0.14929993    -0.32800
S746        S  0.73360170  0.41002623  0.21670070    -0.32800
H747        H  0.75626665  0.42808653  0.19018030     0.28600
H748        H  0.76258827  0.23597818  0.17753285     0.28600
H749        H  0.74158422  0.32346832  0.11693257     0.19100
H750        H  0.73130897  0.33903558  0.24848471     0.19200
C751        C  0.79050605  0.24345980  0.31426718    -0.06700
C752        C  0.80105321  0.27847867  0.32418250    -0.17800
C753        C  0.82881562  0.28416051  0.34828659     0.10500
C754        C  0.84254453  0.25414191  0.36838083    -0.06600
C755        C  0.82965353  0.21908492  0.36062358    -0.17800
C756        C  0.80641431  0.21332997  0.33218560     0.10600
S757        S  0.84823566  0.32962709  0.34930396    -0.32800
S758        S  0.80206574  0.16718703  0.31818816    -0.32800
H759        H  0.80097740  0.17670531  0.28129353     0.28600
H760        H  0.83149961  0.34441928  0.31872381     0.28600
H761        H  0.78847368  0.30201425  0.31191654     0.19100
H762        H  0.83923437  0.19544940  0.37538492     0.19200
C763        C  0.02442693  0.58041325  0.81943570    -0.06700
C764        C  0.00310644  0.54826245  0.82485765    -0.17800
C765        C  0.98421632  0.53990487  0.85782427     0.10500
C766        C  0.99116446  0.56060868  0.88819484    -0.06600
C767        C  0.00847256  0.59461707  0.88184390    -0.17800
C768        C  0.02204981  0.60589579  0.84733565     0.10600
S769        S  0.95063096  0.50373358  0.85875890    -0.32800
S770        S  0.03231186  0.65380405  0.84038597    -0.32800
H771        H  0.02648288  0.65450872  0.80321198     0.28600
H772        H  0.92586303  0.52111817  0.88195483     0.28600
H773        H  0.00103856  0.52911659  0.80372404     0.19100
H774        H  0.01114950  0.61271863  0.90389483     0.19200
C775        C  0.17108560  0.95538442  0.59179905    -0.06700
C776        C  0.17185189  0.99200267  0.57979311    -0.17800
C777        C  0.13987737  0.00987676  0.56920895     0.10500
C778        C  0.10540701  0.99113333  0.57184581    -0.06600
C779        C  0.10451724  0.95540544  0.58692732    -0.17800
C780        C  0.13669267  0.93711754  0.59564074     0.10600
S781        S  0.14464615  0.05560989  0.55008275    -0.32800
S782        S  0.13211592  0.88925289  0.60728739    -0.32800
H783        H  0.16425637  0.87930924  0.58845208     0.28600
H784        H  0.18237966  0.06041667  0.55506257     0.28600
H785        H  0.19807484  0.00613780  0.57717653     0.19100
H786        H  0.07891772  0.94006844  0.58861139     0.19200
C787        C  0.13815168  0.64110766  0.76202093    -0.06700
C788        C  0.15553800  0.64548407  0.79478268    -0.17800
C789        C  0.18003250  0.67444362  0.79969088     0.10500
C790        C  0.19162801  0.69766409  0.76991635    -0.06600
C791        C  0.17589813  0.69187099  0.73665323    -0.17800
C792        C  0.14814647  0.66579274  0.73296015     0.10600
S793        S  0.19202779  0.68172901  0.84550437    -0.32800
S794        S  0.12420009  0.66888305  0.69160233    -0.32800
H795        H  0.08952161  0.66620108  0.70926997     0.28600
H796        H  0.19240308  0.71986534  0.84169364     0.28600
H797        H  0.14876539  0.62723091  0.81759510     0.19100
H798        H  0.18415328  0.70877472  0.71325946     0.19200
C799        C  0.24785911  0.87343413  0.66843799    -0.06700
C800        C  0.25444131  0.83734395  0.65955273    -0.17800
C801        C  0.25426380  0.80909840  0.68590785     0.10500
C802        C  0.24712466  0.81669072  0.72230318    -0.06600
C803        C  0.24152349  0.85287487  0.73157951    -0.17800
C804        C  0.24196274  0.88129297  0.70509771     0.10600
S805        S  0.26377040  0.76331932  0.67291728    -0.32800
S806        S  0.23565054  0.92688096  0.71980844    -0.32800
H807        H  0.25579716  0.94427250  0.69102802     0.28600
H808        H  0.26851486  0.77112690  0.63576203     0.28600
H809        H  0.25898387  0.83118405  0.63157507     0.19100
H810        H  0.23669541  0.85898091  0.75955860     0.19200
C811        C  0.30705233  0.74526678  0.82079861    -0.06700
C812        C  0.29870283  0.74554111  0.85789438    -0.17800
C813        C  0.32595600  0.74064926  0.88309357     0.10500
C814        C  0.36258235  0.73580531  0.87101686    -0.06600
C815        C  0.37065208  0.73452172  0.83389188    -0.17800
C816        C  0.34332126  0.73882753  0.80874775     0.10600
S817        S  0.31222270  0.74044198  0.93010280    -0.32800
S818        S  0.35651989  0.73597707  0.76180200    -0.32800
H819        H  0.32289210  0.72202337  0.75069980     0.28600
H820        H  0.34041599  0.71797269  0.94213031     0.28600
H821        H  0.27068169  0.74961507  0.86725961     0.19100
H822        H  0.39869275  0.73087264  0.82436331     0.19200
C823        C  0.58314080  0.88521725  0.99644896    -0.06700
C824        C  0.57421525  0.85110570  0.98319236    -0.17800
C825        C  0.58437234  0.81858124  0.00102168     0.10500
C826        C  0.59978127  0.81973546  0.03557359    -0.06600
C827        C  0.61185888  0.85402254  0.04667541    -0.17800
C828        C  0.60620926  0.88602491  0.02608889     0.10600
S829        S  0.58070465  0.77675880  0.97738524    -0.32800
S830        S  0.63072122  0.92646557  0.03792338    -0.32800
H831        H  0.63479386  0.94063756  0.00233795     0.28600
H832        H  0.56103698  0.79055163  0.94821375     0.28600
H833        H  0.55900075  0.84989524  0.95883741     0.19100
H834        H  0.62580834  0.85648269  0.07159840     0.19200
C835        C  0.45241913  0.87650010  0.97911995    -0.06700
C836        C  0.46675590  0.84491759  0.99526783    -0.17800
C837        C  0.46024658  0.81037851  0.98154334     0.10500
C838        C  0.44195002  0.80714242  0.94871236    -0.06600
C839        C  0.42742251  0.83892649  0.93311022    -0.17800
C840        C  0.43004687  0.87243234  0.94908520     0.10600
S841        S  0.47419657  0.77203155  0.00865196    -0.32800
S842        S  0.40348448  0.90856678  0.92947383    -0.32800
H843        H  0.39484538  0.92408210  0.96262280     0.28600
H844        H  0.44512659  0.74907542  0.99952025     0.28600
H845        H  0.48330381  0.84705440  0.01870476     0.19100
H846        H  0.41306193  0.83787396  0.90822573     0.19200
C847        C  0.58434156  0.02355291  0.16843516    -0.06700
C848        C  0.58562360  0.98550327  0.16649135    -0.17800
C849        C  0.57998701  0.96823823  0.13387900     0.10500
C850        C  0.57489541  0.98974528  0.10206981    -0.06600
C851        C  0.57766438  0.02780927  0.10408125    -0.17800
C852        C  0.57936081  0.04456549  0.13672001     0.10600
S853        S  0.57750558  0.91930184  0.13564925    -0.32800
S854        S  0.56882129  0.09222297  0.13620667    -0.32800
H855        H  0.54905027  0.09119377  0.16932284     0.28600
H856        H  0.58651960  0.91482347  0.09935862     0.28600
H857        H  0.58922363  0.96911664  0.19085596     0.19100
H858        H  0.57347216  0.04532556  0.08061153     0.19200
C859        C  0.45742343  0.98482746  0.11345560    -0.06700
C860        C  0.48091743  0.97971049  0.14208535    -0.17800
C861        C  0.47099998  0.95747413  0.17242714     0.10500
C862        C  0.43465096  0.94335083  0.17728644    -0.06600
C863        C  0.40995700  0.95172022  0.14978842    -0.17800
C864        C  0.42124316  0.97090743  0.11771434     0.10600
S865        S  0.50794310  0.94371529  0.20028376    -0.32800
S866        S  0.38835449  0.97631691  0.08302276    -0.32800
H867        H  0.40448884  0.00798207  0.06670635     0.28600
H868        H  0.49723891  0.90682989  0.20161359     0.28600
H869        H  0.50878701  0.98988305  0.13906707     0.19100
H870        H  0.38167803  0.94252081  0.15264829     0.19200
C871        C  0.42448080  0.15937939  0.05733414    -0.06700
C872        C  0.42356055  0.16051213  0.01963606    -0.17800
C873        C  0.43020405  0.12946109  0.99996537     0.10500
C874        C  0.43835360  0.09630379  0.01813421    -0.06600
C875        C  0.43505788  0.09430758  0.05587836    -0.17800
C876        C  0.42934868  0.12546974  0.07560676     0.10600
S877        S  0.42887693  0.13413654  0.95172743    -0.32800
S878        S  0.43331645  0.12067116  0.12370011    -0.32800
H879        H  0.45287711  0.15349732  0.12700431     0.28600
H880        H  0.42053932  0.09732972  0.94656101     0.28600
H881        H  0.41857989  0.18603238  0.00533807     0.19100
H882        H  0.44102575  0.06921242  0.07035241     0.19200
C883        C  0.58509405  0.18481501  0.95353229    -0.06700
C884        C  0.55572506  0.17893780  0.97884400    -0.17800
C885        C  0.55061782  0.14537512  0.99804471     0.10500
C886        C  0.57195875  0.11537233  0.98845333    -0.06600
C887        C  0.60398615  0.12250240  0.96725668    -0.17800
C888        C  0.61214958  0.15740049  0.95228738     0.10600
S889        S  0.51676599  0.14134187  0.03425400    -0.32800
S890        S  0.65830329  0.16537583  0.93445850    -0.32800
H891        H  0.65781315  0.20321402  0.93829427     0.28600
H892        H  0.51162885  0.17880292  0.03743801     0.28600
H893        H  0.53564063  0.19978246  0.98272589     0.19100
H894        H  0.62255592  0.10055495  0.96187303     0.19200
C895        C  0.06613700  0.17995717  0.59624442    -0.06700
C896        C  0.02772124  0.17671404  0.59729342    -0.17800
C897        C  0.01012940  0.14355933  0.59063430     0.10500
C898        C  0.03133737  0.11322320  0.58165411    -0.06600
C899        C  0.06938001  0.11548974  0.58546536    -0.17800
C900        C  0.08707741  0.14847076  0.59172450     0.10600
S901        S  0.96101281  0.14311145  0.58913244    -0.32800
S902        S  0.13652113  0.14920438  0.58955745    -0.32800
H903        H  0.14036251  0.18290696  0.57065869     0.28600
H904        H  0.95698501  0.10754025  0.60394618     0.28600
H905        H  0.01137447  0.20053733  0.60166170     0.19100
H906        H  0.08575228  0.09229569  0.57926315     0.19200
C907        C  0.44054232  0.06282518  0.79721942    -0.06700
C908        C  0.45674585  0.08270191  0.82377016    -0.17800
C909        C  0.46347396  0.06715208  0.85751124     0.10500
C910        C  0.45288423  0.03035625  0.86569550    -0.06600
C911        C  0.43647180  0.01026695  0.83899560    -0.17800
C912        C  0.43004967  0.02617851  0.80487180     0.10600
S913        S  0.48932834  0.09423860  0.88774035    -0.32800
S914        S  0.40841464  0.99853373  0.77252301    -0.32800
H915        H  0.39254249  0.02726055  0.75298750     0.28600
H916        H  0.48815573  0.12769735  0.86836061     0.28600
H917        H  0.46554969  0.11047308  0.81731688     0.19100
H918        H  0.42900503  0.98199262  0.84462485     0.19200
C919        C  0.18487027  0.41674130  0.94467079    -0.06700
C920        C  0.17842596  0.41495990  0.98211364    -0.17800
C921        C  0.14270522  0.41633353  0.99709048     0.10500
C922        C  0.11282162  0.41969562  0.97419201    -0.06600
C923        C  0.11906622  0.41619177  0.93718911    -0.17800
C924        C  0.15458477  0.41645296  0.92198363     0.10600
S925        S  0.13732423  0.41870544  0.04520445    -0.32800
S926        S  0.16022222  0.42276334  0.87365773    -0.32800
H927        H  0.12536596  0.40919551  0.86567035     0.28600
H928        H  0.10372244  0.39944869  0.04751685     0.28600
H929        H  0.20138391  0.41395213  0.99974759     0.19100
H930        H  0.09618869  0.41910299  0.91975016     0.19200
C931        C  0.21746163  0.26705381  0.69767777    -0.06700
C932        C  0.19503861  0.29714236  0.69069695    -0.17800
C933        C  0.16363174  0.29430296  0.67003287     0.10500
C934        C  0.15636185  0.26163796  0.65249936    -0.06600
C935        C  0.17877369  0.23172577  0.65955966    -0.17800
C936        C  0.20717218  0.23331728  0.68355667     0.10600
S937        S  0.13181560  0.33143885  0.66911317    -0.32800
S938        S  0.22614559  0.19030072  0.69739981    -0.32800
H939        H  0.23112987  0.19996108  0.73311249     0.28600
H940        H  0.15023799  0.35375234  0.69267482     0.28600
H941        H  0.20181177  0.32299741  0.70176905     0.19100
H942        H  0.17352261  0.20615740  0.64712332     0.19200
C943        C  0.34131232  0.22430659  0.73089643    -0.06700
C944        C  0.32937783  0.18803570  0.72900148    -0.17800
C945        C  0.35405763  0.15965525  0.72673260     0.10500
C946        C  0.39208961  0.16708047  0.72726655    -0.06600
C947        C  0.40441075  0.20327533  0.72877080    -0.17800
C948        C  0.37948403  0.23197848  0.73030152     0.10600
S949        S  0.33501563  0.11434515  0.72400043    -0.32800
S950        S  0.39815370  0.27750431  0.73111019    -0.32800
H951        H  0.36920775  0.29428382  0.71333958     0.28600
H952        H  0.36437222  0.10034664  0.70376190     0.28600
H953        H  0.30033385  0.18156680  0.72985126     0.19100
H954        H  0.43355020  0.20913672  0.72929239     0.19200
C955        C  0.28054754  0.32257965  0.80063136    -0.06700
C956        C  0.27630673  0.35971597  0.79209514    -0.17800
C957        C  0.27335839  0.38516446  0.81897657     0.10500
C958        C  0.27557481  0.37350790  0.85537324    -0.06600
C959        C  0.28085343  0.33657103  0.86391931    -0.17800
C960        C  0.28295955  0.31097866  0.83709060     0.10600
S961        S  0.26560414  0.43178825  0.80507901    -0.32800
S962        S  0.28654837  0.26388561  0.85137767    -0.32800
H963        H  0.26531096  0.24998802  0.82412552     0.28600
H964        H  0.24335069  0.44054919  0.83494696     0.28600
H965        H  0.27438219  0.36883305  0.76421244     0.19100
H966        H  0.28177271  0.32741228  0.89188026     0.19200
C967        C  0.88879137  0.56865495  0.01609467    -0.06700
C968        C  0.85637921  0.55596505  0.03393752    -0.17800
C969        C  0.82238961  0.56031624  0.01819924     0.10500
C970        C  0.82075076  0.57630058  0.98303692    -0.06600
C971        C  0.85306167  0.59197799  0.96704346    -0.17800
C972        C  0.88648889  0.58960027  0.98378503     0.10600
S973        S  0.78269212  0.54441522  0.04443851    -0.32800
S974        S  0.92573620  0.61209752  0.96142960    -0.32800
H975        H  0.94614743  0.61459765  0.99261814     0.28600
H976        H  0.75882478  0.57017408  0.02978949     0.28600
H977        H  0.85768348  0.54027131  0.05907435     0.19100
H978        H  0.85294332  0.60497064  0.94048554     0.19200
C979        C  0.95174706  0.80563792  0.56803611    -0.06700
C980        C  0.92799748  0.83410488  0.56030096    -0.17800
C981        C  0.94083069  0.86949346  0.55119712     0.10500
C982        C  0.97924739  0.87722752  0.54837031    -0.06600
C983        C  0.00314905  0.84833879  0.55569651    -0.17800
C984        C  0.98988320  0.81316610  0.56629079     0.10600
S985        S  0.90669361  0.90342590  0.54270979    -0.32800
S986        S  0.02291862  0.77968487  0.57890480    -0.32800
H987        H  0.00043772  0.76113480  0.60523400     0.28600
H988        H  0.87598410  0.88376668  0.55730873     0.28600
H989        H  0.89878614  0.82841924  0.56175220     0.19100
H990        H  0.03248666  0.85329687  0.55392938     0.19200
C991        C  0.75564056  0.68698953  0.82994495    -0.06700
C992        C  0.76172884  0.65052231  0.82245978    -0.17800
C993        C  0.75967758  0.62333272  0.84977994     0.10500
C994        C  0.75001588  0.63248832  0.88528714    -0.06600
C995        C  0.74383408  0.66886315  0.89292564    -0.17800
C996        C  0.74704157  0.69625168  0.86581599     0.10600
S997        S  0.77180310  0.57743846  0.83945753    -0.32800
S998        S  0.74181607  0.74247704  0.87920365    -0.32800
H999        H  0.76742184  0.75776278  0.85362666     0.28600
H1000       H  0.78119011  0.58427794  0.80284025     0.28600
H1001       H  0.76834054  0.64341621  0.79507201     0.19100
H1002       H  0.73767845  0.67606237  0.92040593     0.19200
C1003       C  0.81698686  0.73772655  0.71648450    -0.06700
C1004       C  0.85191695  0.75348271  0.71905427    -0.17800
C1005       C  0.87766470  0.75307812  0.69018719     0.10500
C1006       C  0.86766521  0.73820399  0.65728272    -0.06600
C1007       C  0.83273214  0.72207125  0.65520755    -0.17800
C1008       C  0.80785468  0.72079022  0.68456290     0.10600
S1009       S  0.92305355  0.77050638  0.69772105    -0.32800
S1010       S  0.76486783  0.69706735  0.67941272    -0.32800
H1011       H  0.75969240  0.68520893  0.71555803     0.28600
H1012       H  0.94139603  0.74561753  0.67605108     0.28600
H1013       H  0.85923784  0.76589052  0.74377905     0.19100
H1014       H  0.82468597  0.71019673  0.63044565     0.19200
C1015       C  0.56552669  0.99025520  0.85271869    -0.06700
C1016       C  0.53719360  0.98475468  0.82902292    -0.17800
C1017       C  0.54210963  0.96421253  0.79844722     0.10500
C1018       C  0.57748184  0.95153695  0.78873094    -0.06600
C1019       C  0.60694775  0.96199307  0.81001933    -0.17800
C1020       C  0.60110845  0.97975548  0.84241413     0.10600
S1021       S  0.50074900  0.95049129  0.77744479    -0.32800
S1022       S  0.63955524  0.98617971  0.87064222    -0.32800
H1023       H  0.62393286  0.01398506  0.89066399     0.28600
H1024       H  0.50954072  0.91344235  0.77873457     0.28600
H1025       H  0.50969405  0.99214690  0.83691819     0.19100
H1026       H  0.63462382  0.95428286  0.80270702     0.19200
C1027       C  0.63997717  0.83776594  0.75060506    -0.06700
C1028       C  0.66027384  0.82571606  0.72069210    -0.17800
C1029       C  0.68717343  0.79952828  0.72429900     0.10500
C1030       C  0.69810199  0.78812188  0.75903985    -0.06600
C1031       C  0.67798739  0.80039766  0.78904636    -0.17800
C1032       C  0.64786189  0.82301276  0.78511158     0.10600
S1033       S  0.70325994  0.77951687  0.68336034    -0.32800
S1034       S  0.61929205  0.82923460  0.82487258    -0.32800
H1035       H  0.58642059  0.83215291  0.80646042     0.28600
H1036       H  0.70408981  0.74427216  0.69913013     0.28600
H1037       H  0.65460721  0.83599795  0.69386448     0.19100
H1038       H  0.68504440  0.79165009  0.81597406     0.19200
C1039       C  0.49266375  0.35893009  0.05145992    -0.06700
C1040       C  0.45509533  0.35175609  0.04694050    -0.17800
C1041       C  0.43899631  0.31804060  0.05552622     0.10500
C1042       C  0.45996101  0.29030918  0.07104180    -0.06600
C1043       C  0.49748399  0.29672492  0.07602530    -0.17800
C1044       C  0.51425826  0.33070543  0.06606394     0.10600
S1045       S  0.39115070  0.31224314  0.04593016    -0.32800
S1046       S  0.56273755  0.33722038  0.07205179    -0.32800
H1047       H  0.56969629  0.30176077  0.08510557     0.28600
H1048       H  0.39332215  0.27543858  0.03756035     0.28600
H1049       H  0.43758888  0.37248487  0.03589451     0.19100
H1050       H  0.51336480  0.27527592  0.08818067     0.19200
C1051       C  0.54709241  0.31326944  0.91332031    -0.06700
C1052       C  0.56842601  0.34405196  0.90169339    -0.17800
C1053       C  0.55685559  0.37940879  0.90803210     0.10500
C1054       C  0.52322871  0.38462452  0.92637479    -0.06600
C1055       C  0.50101287  0.35414746  0.93659438    -0.17800
C1056       C  0.51239326  0.31866812  0.93017041     0.10600
S1057       S  0.58566927  0.41790452  0.89395322    -0.32800
S1058       S  0.48176452  0.28178083  0.94494960    -0.32800
H1059       H  0.49211745  0.25852587  0.91744931     0.28600
H1060       H  0.61365129  0.39827679  0.87701309     0.28600
H1061       H  0.59496742  0.34029973  0.88860961     0.19100
H1062       H  0.47561589  0.35788231  0.95188680     0.19200
C1063       C  0.66908275  0.46495191  0.10489352    -0.06700
C1064       C  0.63613700  0.44471379  0.11158220    -0.17800
C1065       C  0.60193431  0.45886569  0.10353764     0.10500
C1066       C  0.60016621  0.49235906  0.08395868    -0.06600
C1067       C  0.63204636  0.51451341  0.08154447    -0.17800
C1068       C  0.66584735  0.50182751  0.09343496     0.10600
S1069       S  0.56209081  0.43183117  0.11765084    -0.32800
S1070       S  0.70297039  0.53433088  0.09426702    -0.32800
H1071       H  0.72201498  0.51553369  0.12117330     0.28600
H1072       H  0.54021289  0.46203002  0.12469761     0.28600
H1073       H  0.63658938  0.41682201  0.12166022     0.19100
H1074       H  0.63105144  0.54137522  0.06881767     0.19200
C1075       C  0.70453040  0.51433441  0.94351170    -0.06700
C1076       C  0.69763400  0.49630171  0.97723184    -0.17800
C1077       C  0.66667185  0.47366300  0.98343921     0.10500
C1078       C  0.63872887  0.47436971  0.95848018    -0.06600
C1079       C  0.64764658  0.48797684  0.92345935    -0.17800
C1080       C  0.68140333  0.50536320  0.91520715     0.10600
S1081       S  0.66437818  0.44385727  0.02262204    -0.32800
S1082       S  0.69356440  0.51414299  0.86832177    -0.32800
H1083       H  0.73151506  0.51290687  0.87341761     0.28600
H1084       H  0.64379061  0.41662233  0.00662261     0.28600
H1085       H  0.71562812  0.50030694  0.99922943     0.19100
H1086       H  0.62772659  0.48635477  0.90269792     0.19200
C1087       C  0.53071864  0.62645269  0.04484565    -0.06700
C1088       C  0.50859339  0.65284133  0.06090862    -0.17800
C1089       C  0.52388145  0.68500760  0.07415738     0.10500
C1090       C  0.56228123  0.69115386  0.07171364    -0.06600
C1091       C  0.58424373  0.66484330  0.05637170    -0.17800
C1092       C  0.56952945  0.63305002  0.04287345     0.10600
S1093       S  0.49303800  0.71694044  0.09394820    -0.32800
S1094       S  0.60208341  0.60276986  0.02222239    -0.32800
H1095       H  0.63443864  0.61815900  0.03487153     0.28600
H1096       H  0.51882924  0.73362430  0.11539177     0.28600
H1097       H  0.47915436  0.64864845  0.06284721     0.19100
H1098       H  0.61350287  0.67008482  0.05376029     0.19200
C1099       C  0.47848282  0.67815280  0.91116401    -0.06700
C1100       C  0.47282566  0.65080784  0.88580596    -0.17800
C1101       C  0.48475330  0.61502316  0.89158236     0.10500
C1102       C  0.50727634  0.60701567  0.92038604    -0.06600
C1103       C  0.51972517  0.63562702  0.94065433    -0.17800
C1104       C  0.50441803  0.67024637  0.93804267     0.10600
S1105       S  0.46806121  0.58030968  0.86325279    -0.32800
S1106       S  0.51520041  0.69999772  0.97356136    -0.32800
H1107       H  0.54945654  0.68528192  0.98142204     0.28600
H1108       H  0.49396716  0.55412945  0.87275418     0.28600
H1109       H  0.45673167  0.65616116  0.86246726     0.19100
H1110       H  0.53744993  0.62930486  0.96264980     0.19200
C1111       C  0.40884249  0.50554049  0.07605697    -0.06700
C1112       C  0.40697388  0.54283528  0.08269696    -0.17800
C1113       C  0.37341171  0.56091081  0.08439915     0.10500
C1114       C  0.33998941  0.54114855  0.08204506    -0.06600
C1115       C  0.34167414  0.50328473  0.07890774    -0.17800
C1116       C  0.37538425  0.48537892  0.07626228     0.10600
S1117       S  0.37574983  0.60981132  0.08549183    -0.32800
S1118       S  0.37384773  0.43671641  0.07254211    -0.32800
H1119       H  0.40910761  0.43087968  0.08546399     0.28600
H1120       H  0.34540440  0.61584928  0.06394847     0.28600
H1121       H  0.43194201  0.55903107  0.08267294     0.19100
H1122       H  0.31644435  0.48745827  0.07838138     0.19200
C1123       C  0.38179452  0.49538362  0.96581291    -0.06700
C1124       C  0.35281381  0.51837092  0.95659637    -0.17800
C1125       C  0.31956270  0.50405212  0.94392144     0.10500
C1126       C  0.31496617  0.46593896  0.94128816    -0.06600
C1127       C  0.34231729  0.44340662  0.95376102    -0.17800
C1128       C  0.37532103  0.45712821  0.96537413     0.10600
S1129       S  0.28519700  0.53571763  0.93013926    -0.32800
S1130       S  0.40874638  0.42367185  0.97717877    -0.32800
H1131       H  0.38421730  0.39447318  0.98557226     0.28600
H1132       H  0.26823051  0.51332150  0.90573099     0.28600
H1133       H  0.35688170  0.54752715  0.95705933     0.19100
H1134       H  0.33843822  0.41425652  0.95252642     0.19200
C1135       C  0.07876060  0.48426876  0.39274405    -0.06700
C1136       C  0.07189654  0.44852789  0.38253700    -0.17800
C1137       C  0.07494360  0.43892600  0.34678617     0.10500
C1138       C  0.08781121  0.46465659  0.32005070    -0.06600
C1139       C  0.09686389  0.49996252  0.33007147    -0.17800
C1140       C  0.09225888  0.51010279  0.36606714     0.10600
S1141       S  0.06034380  0.39345456  0.33682288    -0.32800
S1142       S  0.10365114  0.55627366  0.37616854    -0.32800
H1143       H  0.11078127  0.54865846  0.41253527     0.28600
H1144       H  0.04657287  0.40271567  0.30296533     0.28600
H1145       H  0.06067912  0.42836158  0.40203171     0.19100
H1146       H  0.10774454  0.51957610  0.30988071     0.19200
C1147       C  0.96450523  0.50579645  0.37152978    -0.06700
C1148       C  0.99301020  0.52402561  0.35197452    -0.17800
C1149       C  0.98720257  0.54273241  0.31951663     0.10500
C1150       C  0.95233874  0.54133932  0.30412066    -0.06600
C1151       C  0.92415372  0.52073217  0.32250645    -0.17800
C1152       C  0.92969484  0.50334889  0.35627242     0.10600
S1153       S  0.02433191  0.57188946  0.30235056    -0.32800
S1154       S  0.89137947  0.47877025  0.37805619    -0.32800
H1155       H  0.90578832  0.47376296  0.41225646     0.28600
H1156       H  0.00201885  0.60109735  0.29243616     0.28600
H1157       H  0.01942326  0.52682777  0.36380653     0.19100
H1158       H  0.89731195  0.51926511  0.31110021     0.19200
C1159       C  0.06649768  0.55417669  0.69002683    -0.06700
C1160       C  0.07345393  0.51712793  0.68548317    -0.17800
C1161       C  0.07207084  0.50164760  0.65135644     0.10500
C1162       C  0.06399231  0.52363823  0.62057454    -0.06600
C1163       C  0.05842446  0.56095320  0.62546085    -0.17800
C1164       C  0.05837450  0.57594335  0.65942303     0.10600
S1165       S  0.08147626  0.45396262  0.64890505    -0.32800
S1166       S  0.04542050  0.62282177  0.66190090    -0.32800
H1167       H  0.03004393  0.62000642  0.69704411     0.28600
H1168       H  0.09757352  0.45678405  0.61400018     0.28600
H1169       H  0.08045377  0.50022269  0.70859759     0.19100
H1170       H  0.05117575  0.57852112  0.60290476     0.19200
C1171       C  0.93696896  0.44831683  0.70572247    -0.06700
C1172       C  0.95077945  0.42859475  0.67704801    -0.17800
C1173       C  0.96166183  0.44535553  0.64397769     0.10500
C1174       C  0.95799335  0.48353604  0.63834552    -0.06600
C1175       C  0.94627851  0.50383199  0.66780844    -0.17800
C1176       C  0.93561632  0.48667507  0.70130925     0.10600
S1177       S  0.98137046  0.41680112  0.61010656    -0.32800
S1178       S  0.91957102  0.51508624  0.73670296    -0.32800
H1179       H  0.89555019  0.48913730  0.75376779     0.28600
H1180       H  0.98646037  0.38568553  0.63233764     0.28600
H1181       H  0.95301718  0.39942679  0.68072035     0.19100
H1182       H  0.94423272  0.53305629  0.66440956     0.19200
C1183       C  0.08567994  0.30777682  0.54567085    -0.06700
C1184       C  0.04979913  0.30812707  0.53301311    -0.17800
C1185       C  0.03638272  0.33832557  0.51419417     0.10500
C1186       C  0.05733699  0.37069221  0.51135717    -0.21200
C1187       C  0.09405636  0.36983980  0.52092651    -0.17800
C1188       C  0.10907724  0.33805199  0.53569354     0.10600
S1189       S  0.99174560  0.33555592  0.49577998    -0.32800
S1190       S  0.15825121  0.33760764  0.53854946    -0.32800
H1191       H  0.16090591  0.29968851  0.53651760     0.28600
H1192       H  0.98343456  0.29924819  0.50642952     0.28600
H1193       H  0.03121349  0.28551582  0.53920898     0.19100
H1194       H  0.11115503  0.39404219  0.51669706     0.19200
C1195       C  0.92479831  0.39904952  0.48288316    -0.06700
C1196       C  0.92820084  0.39548654  0.44541839    -0.17800
C1197       C  0.92269506  0.36224936  0.42959758     0.10500
C1198       C  0.91095647  0.33160545  0.45107749    -0.06600
C1199       C  0.90308821  0.33587688  0.48797670    -0.17800
C1200       C  0.91044343  0.36921419  0.50424257     0.10600
S1201       S  0.93356491  0.36069245  0.38202272    -0.32800
S1202       S  0.90319661  0.37294894  0.55214054    -0.32800
H1203       H  0.89082890  0.33697548  0.55938607     0.28600
H1204       H  0.94647760  0.32501610  0.38237477     0.28600
H1205       H  0.93901803  0.41781929  0.42832538     0.19100
H1206       H  0.89297941  0.31261992  0.50423854     0.19200
C1207       C  0.92623276  0.59939790  0.52766882    -0.06700
C1208       C  0.92878557  0.60276862  0.56492575    -0.17800
C1209       C  0.93093428  0.63669255  0.58036598     0.10500
C1210       C  0.92601841  0.66890827  0.55914213    -0.06600
C1211       C  0.92085234  0.66568548  0.52214499    -0.17800
C1212       C  0.92117120  0.63154994  0.50624901     0.10600
S1213       S  0.94362136  0.63680987  0.62681795    -0.32800
S1214       S  0.91496091  0.63079147  0.45846027    -0.32800
H1215       H  0.90102440  0.59494429  0.45887848     0.28600
H1216       H  0.96289141  0.67022115  0.62369870     0.28600
H1217       H  0.93298361  0.57896300  0.58197612     0.19100
H1218       H  0.91617762  0.68984908  0.50555320     0.19200
C1219       C  0.05401217  0.69903811  0.45807331    -0.06700
C1220       C  0.03827235  0.67193992  0.43821380    -0.17800
C1221       C  0.02908857  0.63790236  0.45360894     0.10500
C1222       C  0.03463087  0.63055942  0.49076045    -0.06600
C1223       C  0.04807576  0.65857006  0.51152152    -0.17800
C1224       C  0.05857053  0.69260074  0.49534711     0.10600
S1225       S  0.01020700  0.60462436  0.42455269    -0.32800
S1226       S  0.07944610  0.72554416  0.52307094    -0.32800
H1227       H  0.09989579  0.74440181  0.49544098     0.28600
H1228       H  0.01718682  0.62356107  0.39144253     0.28600
H1229       H  0.03388361  0.67745537  0.40991915     0.19100
H1230       H  0.05250324  0.65324537  0.53983845     0.19200
C1231       C  0.48049241  0.08255850  0.66703172    -0.06700
C1232       C  0.51089069  0.05950679  0.67091159    -0.17800
C1233       C  0.52626785  0.04109916  0.64175681     0.10500
C1234       C  0.51349599  0.04828995  0.60690254    -0.06600
C1235       C  0.48710437  0.07526350  0.60233634    -0.17800
C1236       C  0.46874078  0.09024144  0.63160388     0.10600
S1237       S  0.55739091  0.00496360  0.65202418    -0.32800
S1238       S  0.42681473  0.11297731  0.62113627    -0.32800
H1239       H  0.40590583  0.09418231  0.64854352     0.28600
H1240       H  0.58086320  0.01148866  0.62183293     0.28600
H1241       H  0.52144525  0.05374002  0.69727528     0.19100
H1242       H  0.47686779  0.08094847  0.57574175     0.19200
C1243       C  0.52515270  0.90717882  0.59855104    -0.06700
C1244       C  0.50138186  0.90686687  0.62920126    -0.17800
C1245       C  0.51434331  0.90076201  0.66381366     0.10500
C1246       C  0.55216164  0.89598126  0.66837338    -0.06600
C1247       C  0.57508715  0.89199046  0.63769573    -0.17800
C1248       C  0.56184100  0.89659679  0.60291421     0.10600
S1249       S  0.48124213  0.89932897  0.70085227    -0.32800
S1250       S  0.59204460  0.88889564  0.56457600    -0.32800
H1251       H  0.62406766  0.88292924  0.58370092     0.28600
H1252       H  0.50086564  0.87524975  0.72285217     0.28600
H1253       H  0.47279970  0.91355586  0.62653493     0.19100
H1254       H  0.60378268  0.88631275  0.64106831     0.19200
C1255       C  0.39563881  0.05917018  0.47659570    -0.06700
C1256       C  0.38974845  0.06339608  0.43951713    -0.17800
C1257       C  0.35465292  0.06908443  0.42617979     0.10500
C1258       C  0.32411164  0.07193844  0.45031606    -0.06600
C1259       C  0.33014473  0.07045611  0.48741562    -0.17800
C1260       C  0.36535439  0.06447631  0.50070865     0.10600
S1261       S  0.34862405  0.06876995  0.37817844    -0.32800
S1262       S  0.36982332  0.06381057  0.54875143    -0.32800
H1263       H  0.40664630  0.07580793  0.54730363     0.28600
H1264       H  0.38584330  0.06608655  0.36770162     0.28600
H1265       H  0.41222967  0.05932319  0.42060495     0.19100
H1266       H  0.30721425  0.07382718  0.50619521     0.19200
C1267       C  0.36580964  0.93537383  0.50619554    -0.06700
C1268       C  0.36244736  0.90529241  0.53048905    -0.17800
C1269       C  0.32944396  0.89691405  0.54969636     0.10500
C1270       C  0.30033976  0.92225472  0.54944151    -0.06600
C1271       C  0.30237764  0.94970230  0.52173497    -0.17800
C1272       C  0.33369505  0.95442149  0.49863326     0.10600
S1273       S  0.32550475  0.85177409  0.57023879    -0.32800
S1274       S  0.33120127  0.98287122  0.45865579    -0.32800
H1275       H  0.29396730  0.97478929  0.45385677     0.28600
H1276       H  0.28732433  0.84890369  0.56682446     0.28600
H1277       H  0.38561097  0.88766903  0.53412706     0.19100
H1278       H  0.28007451  0.96818762  0.51793429     0.19200
C1279       C  0.48500017  0.02848494  0.35367587    -0.06700
C1280       C  0.50046117  0.00088236  0.33353795    -0.17800
C1281       C  0.52360246  0.00891261  0.30353442     0.10500
C1282       C  0.52821594  0.04521072  0.29035092    -0.06600
C1283       C  0.50955703  0.07267707  0.30852258    -0.17800
C1284       C  0.48944070  0.06489497  0.34086400     0.10600
S1285       S  0.55113358  0.97212572  0.28780123    -0.32800
S1286       S  0.47169622  0.10288729  0.36480786    -0.32800
H1287       H  0.46894661  0.08616812  0.39924716     0.28600
H1288       H  0.58403183  0.99261174  0.28487661     0.28600
H1289       H  0.49876189  0.97378491  0.34384311     0.19100
H1290       H  0.51264301  0.10066438  0.29881052     0.19200
C1291       C  0.44150058  0.89978013  0.30905032    -0.06700
C1292       C  0.41701766  0.90235141  0.33865189    -0.17800
C1293       C  0.42938445  0.90578693  0.37358670     0.10500
C1294       C  0.46759062  0.90944750  0.37901808    -0.06600
C1295       C  0.49198182  0.90265103  0.34996380    -0.17800
C1296       C  0.47927491  0.89696127  0.31539950     0.10600
S1297       S  0.39545595  0.90653558  0.41016661    -0.32800
S1298       S  0.51238808  0.88537000  0.28089059    -0.32800
H1299       H  0.48813361  0.86472147  0.26106809     0.28600
H1300       H  0.36476444  0.89710645  0.39050720     0.28600
H1301       H  0.38788485  0.90239783  0.33417300     0.19100
H1302       H  0.52127589  0.90370979  0.35370431     0.19200
C1303       C  0.59674276  0.06211832  0.49705059    -0.06700
C1304       C  0.59625613  0.07099604  0.53347505    -0.17800
C1305       C  0.62848529  0.07339952  0.55296288     0.10500
C1306       C  0.66353393  0.07035706  0.53542455    -0.06600
C1307       C  0.66424157  0.06498647  0.49814960    -0.17800
C1308       C  0.63173881  0.06104089  0.47896814     0.10600
S1309       S  0.62211846  0.07642901  0.60101028    -0.32800
S1310       S  0.63716147  0.05486137  0.43132396    -0.32800
H1311       H  0.60520931  0.07365371  0.42263104     0.28600
H1312       H  0.65054385  0.05252323  0.60929728     0.28600
H1313       H  0.57025611  0.07312597  0.54797215     0.19100
H1314       H  0.69041808  0.06379257  0.48367088     0.19200
C1315       C  0.62868673  0.95363244  0.45936150    -0.06700
C1316       C  0.63006610  0.94598158  0.42239679    -0.17800
C1317       C  0.66318932  0.94382076  0.40238959     0.10500
C1318       C  0.69667995  0.94801966  0.41959484    -0.06600
C1319       C  0.69561078  0.95637379  0.45628903    -0.17800
C1320       C  0.66232346  0.95946191  0.47617892     0.10600
S1321       S  0.66206124  0.93841649  0.35432232    -0.32800
S1322       S  0.66514194  0.97043566  0.52270764    -0.32800
H1323       H  0.63552893  0.94802721  0.53472937     0.28600
H1324       H  0.62374693  0.93659325  0.35170592     0.28600
H1325       H  0.60479855  0.94290275  0.40843790     0.19100
H1326       H  0.72101338  0.95970466  0.46994788     0.19200
loop_ 
_geom_bond_atom_site_label_1 
_geom_bond_atom_site_label_2 
_geom_bond_distance 
_geom_bond_site_symmetry_2 
_ccdc_geom_bond_type 
O1            C9   1.258       .  A
O1          Co21   1.960       .  S
O2           C10   1.260       .  A
O2          Co22   1.976       .  S
O3           C11   1.249       .  A
O3          Co23   1.957       .  S
O4           C12   1.244       .  A
O4          Co24   1.952       .  S
O5           C11   1.256       .  A
O5          Co22   1.990       .  S
O6           C12   1.260       .  A
O6          Co21   2.019       .  S
O7           C10   1.273       .  A
O7          Co24   2.042       .  S
O8            C9   1.279       .  A
O8          Co23   2.067       .  S
C9         C1315   1.503       .  S
C10        C1267   1.500       .  S
C11        C1243   1.489       .  S
C12        C1294   1.497       .  S
O13          C26   1.285       .  A
O13         Co21   2.039   1_545  S
O14          C27   1.294       .  A
O14         Co22   2.051   1_545  S
O15          C28   1.257       .  A
O15         Co23   1.973   1_545  S
O16          C29   1.257       .  A
O16         Co24   1.976   1_545  S
O17          C29   1.267       .  A
O17         Co22   2.032   1_545  S
O18          C28   1.265       .  A
O18         Co21   2.039   1_545  S
O19          C26   1.276       .  A
O19         Co24   1.939   1_545  S
O20          C27   1.278       .  A
O20         Co23   1.917   1_545  S
Co21         O25   2.160       .  S
Co22         O25   2.146       .  S
Co23         O25   1.982       .  S
Co24         O25   1.980       .  S
C26        C1279   1.471       .  S
C27        C1234   1.486       .  S
C28        C1303   1.520       .  S
C29        C1255   1.506       .  S
O30          C38   1.259       .  A
O30         Co50   1.975       .  S
O31          C39   1.247       .  A
O31         Co51   1.947   1_655  S
O32          C40   1.268       .  A
O32         Co52   2.011   1_655  S
O33          C41   1.283       .  A
O33         Co53   2.019   1_655  S
O34          C40   1.260       .  A
O34         Co51   1.987   1_655  S
O35          C41   1.282       .  A
O35         Co50   1.979       .  S
O36          C39   1.271       .  A
O36         Co53   2.053   1_655  S
O37          C38   1.262       .  A
O37         Co52   2.017   1_655  S
C38        C1207   1.496       .  S
C39        C1195   1.493       .  S
C40        C1147   1.477       .  S
C41        C1174   1.502       .  S
O42          C55   1.245       .  A
O42         Co50   1.955   1_455  S
O43          C56   1.257       .  A
O43         Co51   1.958       .  S
O44          C57   1.257       .  A
O44         Co52   1.960       .  S
O45          C58   1.266       .  A
O45         Co53   2.000       .  S
O46          C58   1.262       .  A
O46         Co51   1.984       .  S
O47          C57   1.277       .  A
O47         Co50   2.052   1_455  S
O48          C55   1.260       .  A
O48         Co53   2.042       .  S
O49          C56   1.266       .  A
O49         Co52   2.020       .  S
Co50         O54   1.998   1_655  S
Co51         O54   1.992       .  S
Co52         O54   2.113       .  S
Co53         O54   2.192       .  S
C55        C1162   1.506       .  S
C56        C1135   1.488       .  S
C57        C1222   1.484       .  S
C58        C1186   1.477       .  S
O59          C67   1.264       .  A
O59         Co79   1.965       .  S
O60          C68   1.265       .  A
O60         Co80   1.964       .  S
O61          C69   1.293       .  A
O61         Co81   2.065   1_554  S
O62          C70   1.286       .  A
O62         Co82   2.051   1_554  S
O63          C69   1.278       .  A
O63         Co80   1.924       .  S
O64          C70   1.284       .  A
O64         Co79   1.953       .  S
O65          C68   1.275       .  A
O65         Co82   2.028   1_554  S
O66          C67   1.270       .  A
O66         Co81   2.035   1_554  S
C67        C1111   1.501       .  S
C68        C1066   1.496       .  S
C69        C1039   1.496       .  S
C70        C1087   1.511       .  S
O71          C84   1.258       .  A
O71         Co79   1.993   1_556  S
O72          C85   1.253       .  A
O72         Co80   2.001   1_556  S
O73          C86   1.254       .  A
O73         Co81   1.952       .  S
O74          C87   1.260       .  A
O74         Co82   1.968       .  S
O75          C87   1.275   1_554  A
O75         Co80   2.036       .  S
O76          C86   1.281       .  A
O76         Co79   2.081   1_556  S
O77          C84   1.259       .  A
O77         Co82   1.976       .  S
O78          C85   1.255       .  A
O78         Co81   1.976       .  S
Co79         O83   2.026   1_554  S
Co80         O83   1.996   1_554  S
Co81         O83   2.067       .  S
Co82         O83   2.066       .  S
C84        C1102   1.475       .  S
C85        C1054   1.472       .  S
C86        C1123   1.502       .  S
C87        C1078   1.487       .  S
C88        C1018   1.509       .  S
C88          C89   1.415       .  A
C88          C93   1.409       .  A
C89          C90   1.412       .  A
C89          H94   1.082       .  S
C90        C1246   1.489       .  S
C90          C91   1.398       .  A
C91          C92   1.402       .  A
C91          H95   1.084       .  S
C92        C1027   1.493       .  S
C92          C93   1.404       .  A
C93          H96   1.079       .  S
C97         C991   1.483       .  S
C97          C98   1.406       .  A
C97         C102   1.403       .  A
C98          C99   1.400       .  A
C98         H103   1.084       .  S
C99        C1003   1.476       .  S
C99         C100   1.400       .  A
C100        C101   1.407       .  A
C100        H104   1.082       .  S
C101       C1030   1.495       .  S
C101        C102   1.407       .  A
C102        H105   1.083       .  S
C106       C1210   1.499       .  S
C106        C107   1.403       .  A
C106        C111   1.419       .  A
C107        C108   1.398       .  A
C107        H112   1.084       .  S
C108       C1006   1.489       .  S
C108        C109   1.401       .  A
C109        C110   1.407       .  A
C109        H113   1.084       .  S
C110        C979   1.499       .  S
C110        C111   1.419       .  A
C111        H114   1.083       .  S
C115        C970   1.495       .  S
C115        C116   1.404       .  A
C115        C120   1.412       .  A
C116        C117   1.393       .  A
C116        H121   1.083       .  S
C117        C994   1.477       .  S
C117        C118   1.398       .  A
C118        C119   1.410       .  A
C118        H122   1.081       .  S
C119       C1075   1.503       .  S
C119        C120   1.413       .  A
C120        H123   1.080       .  S
C124        C943   1.491       .  S
C124        C125   1.406       .  A
C124        C129   1.405       .  A
C125        C126   1.408       .  A
C125        H130   1.082       .  S
C126        C931   1.502       .  S
C126        C127   1.408       .  A
C127        C128   1.406       .  A
C127        H131   1.083       .  S
C128        C955   1.484       .  S
C128        C129   1.405       .  A
C129        H132   1.083       .  S
C133       C1126   1.491       .  S
C133        C134   1.413       .  A
C133        C138   1.409       .  A
C134        C135   1.401       .  A
C134        H139   1.084       .  S
C135        C958   1.478       .  S
C135        C136   1.393       .  A
C136        C137   1.400       .  A
C136        H140   1.084       .  S
C137        C919   1.485       .  S
C137        C138   1.413       .  A
C138        H141   1.082       .  S
C142        C907   1.479       .  S
C142        C143   1.402       .  A
C142        C147   1.397       .  A
C143        C144   1.416       .  A
C143        H148   1.082       .  S
C144       C1231   1.509       .  S
C144        C145   1.418       .  A
C145        C146   1.405       .  A
C145        H149   1.080       .  S
C146        C946   1.482       .  S
C146        C147   1.396       .  A
C147        H150   1.085       .  S
C151        C895   1.485       .  S
C151        C152   1.398       .  A
C151        C156   1.403       .  A
C152        C153   1.407       .  A
C152        H157   1.083       .  S
C153        C934   1.498       .  S
C153        C154   1.408       .  A
C154        C155   1.411       .  A
C154        H158   1.075       .  S
C155       C1183   1.507       .  S
C155        C156   1.413       .  A
C156        H159   1.081       .  S
O160        C168   1.244       .  A
O160       Co180   1.947       .  S
O161        C169   1.289       .  A
O161       Co181   2.068       .  S
O162        C170   1.258       .  A
O162       Co182   1.947       .  S
O163        C171   1.253       .  A
O163       Co183   1.993       .  S
O164        C170   1.283   1_554  A
O164       Co181   2.057       .  S
O165        C171   1.259   1_556  A
O165       Co180   2.013       .  S
O166        C169   1.272   1_545  A
O166       Co183   1.948       .  S
O167        C168   1.267   1_565  A
O167       Co182   2.037       .  S
C168        C910   1.485       .  S
C169        C859   1.492       .  S
C170        C835   1.496       .  S
C171        C874   1.487       .  S
O172        C185   1.265       .  A
O172       Co180   1.965       .  S
O173        C186   1.251       .  A
O173       Co181   1.986   1_556  S
O174        C187   1.256       .  A
O174       Co182   1.958       .  S
O175        C188   1.286       .  A
O175       Co183   2.036   1_565  S
O176        C188   1.279       .  A
O176       Co181   1.958       .  S
O177        C187   1.272   1_545  A
O177       Co180   2.039       .  S
O178        C185   1.284   1_554  A
O178       Co183   2.060       .  S
O179        C186   1.262       .  A
O179       Co182   2.025       .  S
Co180       O184   2.071   1_545  S
Co181       O184   2.069   1_554  S
Co182       O184   2.087       .  S
Co183       O184   2.037   1_544  S
C185        C886   1.498       .  S
C186        C823   1.499       .  S
C187       C1015   1.480       .  S
C188        C850   1.493       .  S
C189        C811   1.477       .  S
C189        C190   1.405       .  A
C189        C194   1.400       .  A
C190        C191   1.404       .  A
C190        H195   1.084       .  S
C191        C802   1.490       .  S
C191        C192   1.409       .  A
C192        C193   1.415       .  A
C192        H196   1.083       .  S
C193        C790   1.505       .  S
C193        C194   1.405       .  A
C194        H197   1.081       .  S
C198       C1099   1.529       .  S
C198        C199   1.428       .  A
C198        C203   1.416       .  A
C199        C200   1.420       .  A
C199        H204   1.076       .  S
C200        C838   1.509       .  S
C200        C201   1.406       .  A
C201        C202   1.392       .  A
C201        H205   1.082       .  S
C202        C814   1.483       .  S
C202        C203   1.395       .  A
C203        H206   1.079       .  S
C207        C775   1.500       .  S
C207        C208   1.416       .  A
C207        C212   1.407       .  A
C208        C209   1.419       .  A
C208        H213   1.080       .  S
C209       C1270   1.524       .  S
C209        C210   1.414       .  A
C210        C211   1.405       .  A
C210        H214   1.079       .  S
C211        C799   1.494       .  S
C211        C212   1.403       .  A
C212        H215   1.083       .  S
C216       C1159   1.497       .  S
C216        C217   1.416       .  A
C216        C221   1.404       .  A
C217        C218   1.423       .  A
C217        H222   1.081       .  S
C218        C763   1.523       .  S
C218        C219   1.412       .  A
C219        C220   1.408       .  A
C219        H223   1.076       .  S
C220        C787   1.508       .  S
C220        C221   1.405       .  A
C221        H224   1.083       .  S
C225        C742   1.475       .  S
C225        C226   1.395       .  A
C225        C230   1.393       .  A
C226        C227   1.409       .  A
C226        H231   1.084       .  S
C227        C727   1.496       .  S
C227        C228   1.410       .  A
C228        C229   1.410       .  A
C228        H232   1.076       .  S
C229        C751   1.499       .  S
C229        C230   1.406       .  A
C230        H233   1.083       .  S
C234       C1198   1.487       .  S
C234        C235   1.410       .  A
C234        C239   1.397       .  A
C235        C236   1.419       .  A
C235        H240   1.081       .  S
C236        C715   1.516       .  S
C236        C237   1.407       .  A
C237        C238   1.409       .  A
C237        H241   1.074       .  S
C238        C754   1.502       .  S
C238        C239   1.405       .  A
C239        H242   1.082       .  S
C243        C706   1.509       .  S
C243        C244   1.421       .  A
C243        C248   1.407       .  A
C244        C245   1.428       .  A
C244        H249   1.080       .  S
C245       C1063   1.513       .  S
C245        C246   1.405       .  A
C246        C247   1.394       .  A
C246        H250   1.082       .  S
C247        C739   1.479       .  S
C247        C248   1.396       .  A
C248        H251   1.084       .  S
C252       C1282   1.491       .  S
C252        C253   1.404       .  A
C252        C257   1.405       .  A
C253        C254   1.400       .  A
C253        H258   1.082       .  S
C254        C847   1.483       .  S
C254        C255   1.407       .  A
C255        C256   1.411       .  A
C255        H259   1.081       .  S
C256        C730   1.507       .  S
C256        C257   1.411       .  A
C257        H260   1.081       .  S
O261        C269   1.286   1_556  A
O261       Co281   2.065       .  S
O262        C270   1.264       .  A
O262       Co282   1.976       .  S
O263        C271   1.265       .  A
O263       Co283   1.957   1_455  S
O264        C272   1.266   1_455  A
O264       Co284   1.984       .  S
O265        C271   1.282       .  A
O265       Co282   2.052       .  S
O266        C272   1.272       .  A
O266       Co281   2.034       .  S
O267        C270   1.275   1_556  A
O267       Co284   2.014       .  S
O268        C269   1.269       .  A
O268       Co283   1.917       .  S
C269        C967   1.471       .  S
C270        C694   1.493       .  S
C271        C670   1.497       .  S
C272        C766   1.503       .  S
O273        C286   1.273       .  A
O273       Co281   1.976       .  S
O274        C287   1.258   1_455  A
O274       Co282   1.963       .  S
O275        C288   1.290       .  A
O275       Co283   2.075       .  S
O276        C289   1.271       .  A
O276       Co284   1.984       .  S
O277        C289   1.270   1_554  A
O277       Co282   1.982       .  S
O278        C288   1.275   1_556  A
O278       Co281   1.943       .  S
O279        C286   1.280   1_455  A
O279       Co284   2.040       .  S
O280        C287   1.261       .  A
O280       Co283   2.030       .  S
Co281       O285   2.030   1_656  S
Co282       O285   2.039       .  S
Co283       O285   2.037   1_655  S
Co284       O285   2.037   1_556  S
C286        C658   1.503       .  S
C287        C682   1.493   1_655  S
C288        C703   1.511       .  S
C289        C922   1.471       .  S
C290        C634   1.518       .  S
C290        C291   1.425       .  A
C290        C295   1.407       .  A
C291        C292   1.424       .  A
C291        H296   1.078       .  S
C292       C1258   1.500       .  S
C292        C293   1.403       .  A
C293        C294   1.396       .  A
C293        H297   1.084       .  S
C294        C646   1.476       .  S
C294        C295   1.395       .  A
C295        H298   1.081       .  S
C299        C643   1.478       .  S
C299        C300   1.401       .  A
C299        C304   1.398       .  A
C300        C301   1.409       .  A
C300        H305   1.081       .  S
C301        C622   1.499       .  S
C301        C302   1.412       .  A
C302        C303   1.404       .  A
C302        H306   1.082       .  S
C303        C607   1.481       .  S
C303        C304   1.399       .  A
C304        H307   1.084       .  S
C308        C679   1.497       .  S
C308        C309   1.412       .  A
C308        C313   1.413       .  A
C309        C310   1.408       .  A
C309        H314   1.083       .  S
C310       C1138   1.482       .  S
C310        C311   1.398       .  A
C311        C312   1.404       .  A
C311        H315   1.083       .  S
C312        C619   1.504       .  S
C312        C313   1.409       .  A
C313        H316   1.081       .  S
C317       C1042   1.479       .  S
C317        C318   1.400       .  A
C317        C322   1.405       .  A
C318        C319   1.397       .  A
C318        H323   1.085       .  S
C319        C610   1.472       .  S
C319        C320   1.401       .  A
C320        C321   1.406       .  A
C320        H324   1.084       .  S
C321        C871   1.488       .  S
C321        C322   1.412       .  A
C322        H325   1.083       .  S
C326        C595   1.515       .  S
C326        C327   1.419       .  A
C326        C331   1.413       .  A
C327        C328   1.411       .  A
C327        H332   1.082       .  S
C328        C571   1.485       .  S
C328        C329   1.397       .  A
C329        C330   1.398       .  A
C329        H333   1.084       .  S
C330        C586   1.497       .  S
C330        C331   1.409       .  A
C331        H334   1.077       .  S
C335       C1171   1.497       .  S
C335        C336   1.407       .  A
C335        C340   1.405       .  A
C336        C337   1.409       .  A
C336        H341   1.082       .  S
C337        C598   1.513       .  S
C337        C338   1.415       .  A
C338        C339   1.414       .  A
C338        H342   1.082       .  S
C339        C655   1.503       .  S
C339        C340   1.414       .  A
C340        H343   1.083       .  S
C344        C883   1.519       .  S
C344        C345   1.421       .  A
C344        C349   1.413       .  A
C345        C346   1.416       .  A
C345        H350   1.081       .  S
C346       C1051   1.495       .  S
C346        C347   1.399       .  A
C347        C348   1.397       .  A
C347        H351   1.084       .  S
C348        C583   1.499       .  S
C348        C349   1.406       .  A
C349        H352   1.073       .  S
C353       C1306   1.520       .  S
C353        C354   1.430       .  A
C353        C358   1.414       .  A
C354        C355   1.424       .  A
C354        H359   1.082       .  S
C355        C562   1.508       .  S
C355        C356   1.404       .  A
C356        C357   1.393       .  A
C356        H360   1.085       .  S
C357        C574   1.484       .  S
C357        C358   1.402       .  A
C358        H361   1.082       .  S
C362        C523   1.499       .  S
C362        C363   1.409       .  A
C362        C367   1.409       .  A
C363        C364   1.409       .  A
C363        H368   1.084       .  S
C364        C547   1.495       .  S
C364        C365   1.408       .  A
C365        C366   1.414       .  A
C365        H369   1.082       .  S
C366        C535   1.512       .  S
C366        C367   1.415       .  A
C367        H370   1.083       .  S
C371       C1318   1.501       .  S
C371        C372   1.406       .  A
C371        C376   1.404       .  A
C372        C373   1.406       .  A
C372        H377   1.083       .  S
C373        C550   1.501       .  S
C373        C374   1.416       .  A
C374        C375   1.421       .  A
C374        H378   1.082       .  S
C375        C511   1.521       .  S
C375        C376   1.414       .  A
C376        H379   1.081       .  S
C380        C667   1.522       .  S
C380        C381   1.418       .  A
C380        C385   1.414       .  A
C381        C382   1.412       .  A
C381        H386   1.080       .  S
C382        C538   1.513       .  S
C382        C383   1.410       .  A
C383        C384   1.406       .  A
C383        H387   1.082       .  S
C384       C1150   1.496       .  S
C384        C385   1.409       .  A
C385        H388   1.079       .  S
C389        C826   1.518       .  S
C389        C390   1.419       .  A
C389        C394   1.416       .  A
C390        C391   1.410       .  A
C390        H395   1.081       .  S
C391        C526   1.499       .  S
C391        C392   1.406       .  A
C392        C393   1.408       .  A
C392        H396   1.084       .  S
C393       C1090   1.495       .  S
C393        C394   1.405       .  A
C394        H397   1.080       .  S
C398        C487   1.484       .  S
C398        C399   1.406       .  A
C398        C403   1.410       .  A
C399        C400   1.401       .  A
C399        H404   1.084       .  S
C400        C499   1.473       .  S
C400        C401   1.394       .  A
C401        C402   1.398       .  A
C401        H405   1.085       .  S
C402        C475   1.475       .  S
C402        C403   1.408       .  A
C403        H406   1.083       .  S
C407       C1291   1.490       .  S
C407        C408   1.412       .  A
C407        C412   1.394       .  A
C408        C409   1.422       .  A
C408        H413   1.081       .  S
C409        C862   1.518       .  S
C409        C410   1.416       .  A
C410        C411   1.405       .  A
C410        H414   1.082       .  S
C411        C502   1.481       .  S
C411        C412   1.395       .  A
C412        H415   1.085       .  S
C416        C463   1.502       .  S
C416        C417   1.416       .  A
C416        C421   1.412       .  A
C417        C418   1.406       .  A
C417        H422   1.083       .  S
C418        C490   1.489       .  S
C418        C419   1.399       .  A
C419        C420   1.402       .  A
C419        H423   1.084       .  S
C420       C1219   1.480       .  S
C420        C421   1.402       .  A
C421        H424   1.082       .  S
C425       C1114   1.502       .  S
C425        C426   1.419       .  A
C425        C430   1.408       .  A
C426        C427   1.420       .  A
C426        H431   1.082       .  S
C427        C691   1.506       .  S
C427        C428   1.402       .  A
C428        C429   1.395       .  A
C428        H432   1.084       .  S
C429        C478   1.481       .  S
C429        C430   1.402       .  A
C430        H433   1.083       .  S
O434        C442   1.291       .  A
O434       Co454   2.078       .  S
O435        C443   1.272       .  A
O435       Co455   1.996       .  S
O436        C444   1.274   1_565  A
O436       Co456   1.977       .  S
O437        C445   1.260   1_545  A
O437       Co457   1.973       .  S
O438        C444   1.281       .  A
O438       Co455   2.045       .  S
O439        C445   1.270       .  A
O439       Co454   2.053       .  S
O440        C443   1.271   1_655  A
O440       Co457   1.997       .  S
O441        C442   1.275   1_455  A
O441       Co456   1.938       .  S
C442        C982   1.511       .  S
C443        C898   1.485       .  S
C444        C778   1.507   1_545  S
C445        C559   1.509   1_565  S
O446        C459   1.266       .  A
O446       Co454   1.967   1_545  S
O447        C460   1.266   1_545  A
O447       Co455   1.982       .  S
O448        C461   1.285   1_455  A
O448       Co456   2.064       .  S
O449        C462   1.266       .  A
O449       Co457   1.994       .  S
O450        C462   1.272   1_455  A
O450       Co455   2.013       .  S
O451        C461   1.273       .  A
O451       Co454   1.931       .  S
O452        C459   1.286       .  A
O452       Co457   2.064       .  S
O453        C460   1.270       .  A
O453       Co456   2.033       .  S
Co454       O458   2.048   1_565  S
Co455       O458   2.042   1_455  S
Co456       O458   2.029   1_465  S
Co457       O458   2.042       .  S
C459        C514   1.503       .  S
C460        C631   1.503       .  S
C461        C466   1.486       .  S
C462        C718   1.490       .  S
C463        C464   1.405       .  A
C463        C468   1.423   1_455  A
C464        C465   1.396       .  A
C464        H473   1.083       .  S
C465        C466   1.417   1_455  A
C465        S469   1.804       .  S
C466        C467   1.403       .  A
C467        C468   1.406       .  A
C467        H474   1.084       .  S
C468        S470   1.804       .  S
S469        H472   1.408       .  S
S470        H471   1.407       .  S
C475        C476   1.400       .  A
C475        C480   1.413       .  A
C476        C477   1.395       .  A
C476        H485   1.084       .  S
C477        C478   1.416       .  A
C477        S481   1.806       .  S
C478        C479   1.404       .  A
C479        C480   1.403       .  A
C479        H486   1.084       .  S
C480        S482   1.803       .  S
S481        H484   1.407       .  S
S482        H483   1.405       .  S
C487        C488   1.403       .  A
C487        C492   1.414       .  A
C488        C489   1.399       .  A
C488        H497   1.084       .  S
C489        C490   1.416       .  A
C489        S493   1.804       .  S
C490        C491   1.406       .  A
C491        C492   1.405       .  A
C491        H498   1.084       .  S
C492        S494   1.804       .  S
S493        H496   1.406       .  S
S494        H495   1.406       .  S
C499        C500   1.402       .  A
C499        C504   1.411       .  A
C500        C501   1.400       .  A
C500        H509   1.084       .  S
C501        C502   1.415       .  A
C501        S505   1.803       .  S
C502        C503   1.405       .  A
C503        C504   1.396       .  A
C503        H510   1.084       .  S
C504        S506   1.805       .  S
S505        H508   1.406       .  S
S506        H507   1.406       .  S
C511        C512   1.414       .  A
C511        C516   1.425       .  A
C512        C513   1.414   1_565  A
C512        H521   1.083       .  S
C513        C514   1.417       .  A
C513        S517   1.802       .  S
C514        C515   1.402       .  A
C515        C516   1.400   1_545  A
C515        H522   1.083       .  S
C516        S518   1.798       .  S
S517        H520   1.408       .  S
S518        H519   1.407       .  S
C523        C524   1.406       .  A
C523        C528   1.417       .  A
C524        C525   1.408       .  A
C524        H533   1.084       .  S
C525        C526   1.418       .  A
C525        S529   1.804       .  S
C526        C527   1.405       .  A
C527        C528   1.407       .  A
C527        H534   1.084       .  S
C528        S530   1.804       .  S
S529        H532   1.406       .  S
S530        H531   1.406       .  S
C535        C536   1.408       .  A
C535        C540   1.420       .  A
C536        C537   1.408       .  A
C536        H545   1.081       .  S
C537        C538   1.422       .  A
C537        S541   1.811       .  S
C538        C539   1.410       .  A
C539        C540   1.407       .  A
C539        H546   1.082       .  S
C540        S542   1.804       .  S
S541        H544   1.407       .  S
S542        H543   1.407       .  S
C547        C548   1.405       .  A
C547        C552   1.415       .  A
C548        C549   1.409       .  A
C548        H557   1.084       .  S
C549        C550   1.418       .  A
C549        S553   1.803       .  S
C550        C551   1.408       .  A
C551        C552   1.407       .  A
C551        H558   1.084       .  S
C552        S554   1.804       .  S
S553        H556   1.406       .  S
S554        H555   1.405       .  S
C559        C560   1.413   1_545  A
C559        C564   1.419       .  A
C560        C561   1.422       .  A
C560        H569   1.082       .  S
C561        C562   1.419   1_565  A
C561        S565   1.803       .  S
C562        C563   1.403       .  A
C563        C564   1.399       .  A
C563        H570   1.083       .  S
C564        S566   1.805       .  S
S565        H568   1.405       .  S
S566        H567   1.406       .  S
C571        C572   1.405       .  A
C571        C576   1.414       .  A
C572        C573   1.400       .  A
C572        H581   1.084       .  S
C573        C574   1.413       .  A
C573        S577   1.805       .  S
C574        C575   1.405       .  A
C575        C576   1.405       .  A
C575        H582   1.084       .  S
C576        S578   1.803       .  S
S577        H580   1.405       .  S
S578        H579   1.405       .  S
C583        C584   1.412       .  A
C583        C588   1.415       .  A
C584        C585   1.398       .  A
C584        H593   1.082       .  S
C585        C586   1.413       .  A
C585        S589   1.805       .  S
C586        C587   1.411       .  A
C587        C588   1.400       .  A
C587        H594   1.083       .  S
C588        S590   1.805       .  S
S589        H592   1.407       .  S
S590        H591   1.407       .  S
C595        C596   1.409       .  A
C595        C600   1.423       .  A
C596        C597   1.411       .  A
C596        H605   1.081       .  S
C597        C598   1.422       .  A
C597        S601   1.811       .  S
C598        C599   1.407       .  A
C599        C600   1.405       .  A
C599        H606   1.083       .  S
C600        S602   1.805       .  S
S601        H604   1.406       .  S
S602        H603   1.407       .  S
C607        C608   1.405       .  A
C607        C612   1.416       .  A
C608        C609   1.398       .  A
C608        H617   1.084       .  S
C609        C610   1.410       .  A
C609        S613   1.804       .  S
C610        C611   1.401       .  A
C611        C612   1.399       .  A
C611        H618   1.084       .  S
C612        S614   1.804       .  S
S613        H616   1.406       .  S
S614        H615   1.406       .  S
C619        C620   1.410       .  A
C619        C624   1.418       .  A
C620        C621   1.397       .  A
C620        H629   1.082       .  S
C621        C622   1.418       .  A
C621        S625   1.806       .  S
C622        C623   1.408       .  A
C623        C624   1.400       .  A
C623        H630   1.082       .  S
C624        S626   1.798       .  S
S625        H628   1.407       .  S
S626        H627   1.407       .  S
C631        C632   1.401   1_565  A
C631        C636   1.418       .  A
C632        C633   1.404       .  A
C632        H641   1.084       .  S
C633        C634   1.427       .  A
C633        S637   1.806       .  S
C634        C635   1.410       .  A
C635        C636   1.411   1_545  A
C635        H642   1.082       .  S
C636        S638   1.796       .  S
S637        H640   1.408       .  S
S638        H639   1.407       .  S
C643        C644   1.406       .  A
C643        C648   1.411       .  A
C644        C645   1.401       .  A
C644        H653   1.084       .  S
C645        C646   1.410       .  A
C645        S649   1.803       .  S
C646        C647   1.404       .  A
C647        C648   1.396       .  A
C647        H654   1.084       .  S
C648        S650   1.805       .  S
S649        H652   1.406       .  S
S650        H651   1.406       .  S
C655        C656   1.406       .  A
C655        C660   1.418       .  A
C656        C657   1.409   1_655  A
C656        H665   1.082   1_655  S
C657        C658   1.421   1_455  A
C657        S661   1.807       .  S
C658        C659   1.409       .  A
C659        C660   1.406       .  A
C659        H666   1.084       .  S
C660        S662   1.804       .  S
S661        H664   1.406       .  S
S662        H663   1.407       .  S
C667        C668   1.414       .  A
C667        C672   1.426   1_655  A
C668        C669   1.400       .  A
C668        H677   1.078       .  S
C669        C670   1.414   1_655  A
C669        S673   1.804       .  S
C670        C671   1.406       .  A
C671        C672   1.405       .  A
C671        H678   1.084       .  S
C672        S674   1.798       .  S
S673        H676   1.408   1_655  S
S674        H675   1.405       .  S
C679        C680   1.409       .  A
C679        C684   1.414       .  A
C680        C681   1.411   1_455  A
C680        H689   1.083       .  S
C681        C682   1.417   1_655  A
C681        S685   1.796       .  S
C682        C683   1.404       .  A
C683        C684   1.394       .  A
C683        H690   1.083       .  S
C684        S686   1.802       .  S
S685        H688   1.405       .  S
S686        H687   1.407       .  S
C691        C692   1.419       .  A
C691        C696   1.414       .  A
C692        C693   1.409       .  A
C692        H701   1.083       .  S
C693        C694   1.407       .  A
C693        S697   1.799       .  S
C694        C695   1.410       .  A
C695        C696   1.400       .  A
C695        H702   1.083       .  S
C696        S698   1.802       .  S
S697        H700   1.406   1_554  S
S698        H699   1.407       .  S
C703        C704   1.412       .  A
C703        C708   1.422       .  A
C704        C705   1.417       .  A
C704        H713   1.083   1_554  S
C705        C706   1.418       .  A
C705        S709   1.798   1_554  S
C706        C707   1.403       .  A
C707        C708   1.401       .  A
C707        H714   1.082       .  S
C708        S710   1.807       .  S
S709        H712   1.406   1_556  S
S710        H711   1.407       .  S
C715        C716   1.405       .  A
C715        C720   1.431       .  A
C716        C717   1.399       .  A
C716        H725   1.079       .  S
C717        C718   1.411       .  A
C717        S721   1.798   1_655  S
C718        C719   1.400       .  A
C719        C720   1.412       .  A
C719        H726   1.084       .  S
C720        S722   1.804       .  S
S721        H724   1.406       .  S
S722        H723   1.407       .  S
C727        C728   1.404       .  A
C727        C732   1.415       .  A
C728        C729   1.398       .  A
C728        H737   1.082       .  S
C729        C730   1.421       .  A
C729        S733   1.805       .  S
C730        C731   1.413       .  A
C731        C732   1.402       .  A
C731        H738   1.082       .  S
C732        S734   1.804       .  S
S733        H736   1.407       .  S
S734        H735   1.407       .  S
C739        C740   1.405       .  A
C739        C744   1.413       .  A
C740        C741   1.400       .  A
C740        H749   1.084       .  S
C741        C742   1.412       .  A
C741        S745   1.804       .  S
C742        C743   1.402       .  A
C743        C744   1.396       .  A
C743        H750   1.084       .  S
C744        S746   1.804       .  S
S745        H748   1.406       .  S
S746        H747   1.406       .  S
C751        C752   1.407       .  A
C751        C756   1.417       .  A
C752        C753   1.396       .  A
C752        H761   1.081       .  S
C753        C754   1.420       .  A
C753        S757   1.811       .  S
C754        C755   1.412       .  A
C755        C756   1.401       .  A
C755        H762   1.082       .  S
C756        S758   1.804       .  S
S757        H760   1.407       .  S
S758        H759   1.407       .  S
C763        C764   1.411       .  A
C763        C768   1.428       .  A
C764        C765   1.408   1_455  A
C764        H773   1.081       .  S
C765        C766   1.416       .  A
C765        S769   1.795       .  S
C766        C767   1.403   1_655  A
C767        C768   1.406       .  A
C767        H774   1.084       .  S
C768        S770   1.806       .  S
S769        H772   1.407       .  S
S770        H771   1.407       .  S
C775        C776   1.405       .  A
C775        C780   1.416       .  A
C776        C777   1.411   1_565  A
C776        H785   1.082   1_565  S
C777        C778   1.425   1_545  A
C777        S781   1.808       .  S
C778        C779   1.411       .  A
C779        C780   1.406       .  A
C779        H786   1.083       .  S
C780        S782   1.804       .  S
S781        H784   1.406       .  S
S782        H783   1.407       .  S
C787        C788   1.409       .  A
C787        C792   1.420       .  A
C788        C789   1.403       .  A
C788        H797   1.082       .  S
C789        C790   1.422       .  A
C789        S793   1.805       .  S
C790        C791   1.406       .  A
C791        C792   1.399       .  A
C791        H798   1.082       .  S
C792        S794   1.799       .  S
S793        H796   1.407       .  S
S794        H795   1.407       .  S
C799        C800   1.405       .  A
C799        C804   1.416       .  A
C800        C801   1.403       .  A
C800        H809   1.083       .  S
C801        C802   1.411       .  A
C801        S805   1.808       .  S
C802        C803   1.406       .  A
C803        C804   1.410       .  A
C803        H810   1.083       .  S
C804        S806   1.803       .  S
S805        H808   1.407       .  S
S806        H807   1.406       .  S
C811        C812   1.405       .  A
C811        C816   1.410       .  A
C812        C813   1.401       .  A
C812        H821   1.084       .  S
C813        C814   1.412       .  A
C813        S817   1.804       .  S
C814        C815   1.406       .  A
C815        C816   1.399       .  A
C815        H822   1.084       .  S
C816        S818   1.804       .  S
S817        H820   1.406       .  S
S818        H819   1.406       .  S
C823        C824   1.406       .  A
C823        C828   1.413   1_556  A
C824        C825   1.409   1_556  A
C824        H833   1.082       .  S
C825        C826   1.424       .  A
C825        S829   1.809   1_554  S
C826        C827   1.413       .  A
C827        C828   1.404       .  A
C827        H834   1.081       .  S
C828        S830   1.803       .  S
S829        H832   1.407       .  S
S830        H831   1.408       .  S
C835        C836   1.406       .  A
C835        C840   1.419       .  A
C836        C837   1.409       .  A
C836        H845   1.084   1_556  S
C837        C838   1.422       .  A
C837        S841   1.796   1_556  S
C838        C839   1.407       .  A
C839        C840   1.394       .  A
C839        H846   1.083       .  S
C840        S842   1.807       .  S
S841        H844   1.406   1_554  S
S842        H843   1.408       .  S
C847        C848   1.408   1_545  A
C847        C852   1.406       .  A
C848        C849   1.412       .  A
C848        H857   1.084       .  S
C849        C850   1.419       .  A
C849        S853   1.803       .  S
C850        C851   1.410   1_565  A
C851        C852   1.387       .  A
C851        H858   1.083       .  S
C852        S854   1.803       .  S
S853        H856   1.396       .  S
S854        H855   1.406       .  S
C859        C860   1.401       .  A
C859        C864   1.411       .  A
C860        C861   1.403       .  A
C860        H869   1.080       .  S
C861        C862   1.421       .  A
C861        S865   1.798       .  S
C862        C863   1.417       .  A
C863        C864   1.410       .  A
C863        H870   1.082       .  S
C864        S866   1.803       .  S
S865        H868   1.407       .  S
S866        H867   1.406   1_565  S
C871        C872   1.405       .  A
C871        C876   1.416       .  A
C872        C873   1.402   1_554  A
C872        H881   1.084       .  S
C873        C874   1.415   1_556  A
C873        S877   1.801       .  S
C874        C875   1.406       .  A
C875        C876   1.401       .  A
C875        H882   1.081       .  S
C876        S878   1.804       .  S
S877        H880   1.407       .  S
S878        H879   1.407       .  S
C883        C884   1.411       .  A
C883        C888   1.425       .  A
C884        C885   1.411       .  A
C884        H893   1.081       .  S
C885        C886   1.413       .  A
C885        S889   1.797   1_556  S
C886        C887   1.403       .  A
C887        C888   1.405       .  A
C887        H894   1.084       .  S
C888        S890   1.805       .  S
S889        H892   1.405       .  S
S890        H891   1.407       .  S
C895        C896   1.405       .  A
C895        C900   1.412       .  A
C896        C897   1.406       .  A
C896        H905   1.084       .  S
C897        C898   1.414       .  A
C897        S901   1.796   1_455  S
C898        C899   1.403       .  A
C899        C900   1.399       .  A
C899        H906   1.078       .  S
C900        S902   1.804       .  S
S901        H904   1.406       .  S
S902        H903   1.406       .  S
C907        C908   1.396       .  A
C907        C912   1.413       .  A
C908        C909   1.392       .  A
C908        H917   1.083       .  S
C909        C910   1.423       .  A
C909        S913   1.813       .  S
C910        C911   1.407       .  A
C911        C912   1.408       .  A
C911        H918   1.083   1_545  S
C912        S914   1.803   1_545  S
S913        H916   1.406       .  S
S914        H915   1.406   1_565  S
C919        C920   1.405       .  A
C919        C924   1.416       .  A
C920        C921   1.403       .  A
C920        H929   1.083       .  S
C921        C922   1.413       .  A
C921        S925   1.801   1_556  S
C922        C923   1.400       .  A
C923        C924   1.397       .  A
C923        H930   1.080       .  S
C924        S926   1.810       .  S
S925        H928   1.406       .  S
S926        H927   1.406       .  S
C931        C932   1.410       .  A
C931        C936   1.419       .  A
C932        C933   1.408       .  A
C932        H941   1.081       .  S
C933        C934   1.417       .  A
C933        S937   1.809       .  S
C934        C935   1.406       .  A
C935        C936   1.395       .  A
C935        H942   1.083       .  S
C936        S938   1.804       .  S
S937        H940   1.407       .  S
S938        H939   1.407       .  S
C943        C944   1.404       .  A
C943        C948   1.417       .  A
C944        C945   1.395       .  A
C944        H953   1.083       .  S
C945        C946   1.412       .  A
C945        S949   1.806       .  S
C946        C947   1.405       .  A
C947        C948   1.408       .  A
C947        H954   1.084       .  S
C948        S950   1.802       .  S
S949        H952   1.405       .  S
S950        H951   1.406       .  S
C955        C956   1.405       .  A
C955        C960   1.414       .  A
C956        C957   1.400       .  A
C956        H965   1.084       .  S
C957        C958   1.412       .  A
C957        S961   1.805       .  S
C958        C959   1.404       .  A
C959        C960   1.401       .  A
C959        H966   1.084       .  S
C960        S962   1.804       .  S
S961        H964   1.405       .  S
S962        H963   1.406       .  S
C967        C968   1.401       .  A
C967        C972   1.410   1_554  A
C968        C969   1.400       .  A
C968        H977   1.084       .  S
C969        C970   1.419   1_554  A
C969        S973   1.797       .  S
C970        C971   1.408       .  A
C971        C972   1.393       .  A
C971        H978   1.082       .  S
C972        S974   1.805       .  S
S973        H976   1.407       .  S
S974        H975   1.407       .  S
C979        C980   1.400       .  A
C979        C984   1.415       .  A
C980        C981   1.404       .  A
C980        H989   1.083       .  S
C981        C982   1.427       .  A
C981        S985   1.807       .  S
C982        C983   1.412   1_655  A
C983        C984   1.413   1_455  A
C983        H990   1.083       .  S
C984        S986   1.800   1_655  S
S985        H988   1.407       .  S
S986        H987   1.406       .  S
C991        C992   1.402       .  A
C991        C996   1.417       .  A
C992        C993   1.399       .  A
C992       H1001   1.083       .  S
C993        C994   1.411       .  A
C993        S997   1.807       .  S
C994        C995   1.401       .  A
C995        C996   1.400       .  A
C995       H1002   1.084       .  S
C996        S998   1.804       .  S
S997       H1000   1.407       .  S
S998        H999   1.406       .  S
C1003      C1004   1.401       .  A
C1003      C1008   1.412       .  A
C1004      C1005   1.404       .  A
C1004      H1013   1.084       .  S
C1005      C1006   1.419       .  A
C1005      S1009   1.803       .  S
C1006      C1007   1.405       .  A
C1007      C1008   1.395       .  A
C1007      H1014   1.084       .  S
C1008      S1010   1.804       .  S
S1009      H1012   1.407       .  S
S1010      H1011   1.405       .  S
C1015      C1016   1.401       .  A
C1015      C1020   1.406       .  A
C1016      C1017   1.399       .  A
C1016      H1025   1.079       .  S
C1017      C1018   1.420       .  A
C1017      S1021   1.800       .  S
C1018      C1019   1.416       .  A
C1019      C1020   1.406       .  A
C1019      H1026   1.083       .  S
C1020      S1022   1.802       .  S
S1021      H1024   1.407       .  S
S1022      H1023   1.407   1_565  S
C1027      C1028   1.406       .  A
C1027      C1032   1.417       .  A
C1028      C1029   1.394       .  A
C1028      H1037   1.083       .  S
C1029      C1030   1.418       .  A
C1029      S1033   1.803       .  S
C1030      C1031   1.409       .  A
C1031      C1032   1.399       .  A
C1031      H1038   1.083       .  S
C1032      S1034   1.805       .  S
S1033      H1036   1.406       .  S
S1034      H1035   1.407       .  S
C1039      C1040   1.410       .  A
C1039      C1044   1.419       .  A
C1040      C1041   1.387       .  A
C1040      H1049   1.082       .  S
C1041      C1042   1.405       .  A
C1041      S1045   1.807       .  S
C1042      C1043   1.407       .  A
C1043      C1044   1.416       .  A
C1043      H1050   1.082       .  S
C1044      S1046   1.806       .  S
S1045      H1048   1.406       .  S
S1046      H1047   1.407       .  S
C1051      C1052   1.411       .  A
C1051      C1056   1.414       .  A
C1052      C1053   1.402       .  A
C1052      H1061   1.083       .  S
C1053      C1054   1.404       .  A
C1053      S1057   1.803       .  S
C1054      C1055   1.407       .  A
C1055      C1056   1.405       .  A
C1055      H1062   1.085       .  S
C1056      S1058   1.803       .  S
S1057      H1060   1.407       .  S
S1058      H1059   1.406       .  S
C1063      C1064   1.415       .  A
C1063      C1068   1.417       .  A
C1064      C1065   1.399       .  A
C1064      H1073   1.081       .  S
C1065      C1066   1.413       .  A
C1065      S1069   1.801       .  S
C1066      C1067   1.410       .  A
C1067      C1068   1.407       .  A
C1067      H1074   1.083       .  S
C1068      S1070   1.797       .  S
S1069      H1072   1.408       .  S
S1070      H1071   1.407       .  S
C1075      C1076   1.411       .  A
C1075      C1080   1.419       .  A
C1076      C1077   1.402       .  A
C1076      H1085   1.081       .  S
C1077      C1078   1.404       .  A
C1077      S1081   1.791   1_556  S
C1078      C1079   1.405       .  A
C1079      C1080   1.399       .  A
C1079      H1086   1.083       .  S
C1080      S1082   1.802       .  S
S1081      H1084   1.408       .  S
S1082      H1083   1.407       .  S
C1087      C1088   1.411       .  A
C1087      C1092   1.433       .  A
C1088      C1089   1.415       .  A
C1088      H1097   1.083       .  S
C1089      C1090   1.416       .  A
C1089      S1093   1.802       .  S
C1090      C1091   1.395       .  A
C1091      C1092   1.399       .  A
C1091      H1098   1.083       .  S
C1092      S1094   1.815       .  S
S1093      H1096   1.406       .  S
S1094      H1095   1.407       .  S
C1099      C1100   1.425       .  A
C1099      C1104   1.427       .  A
C1100      C1101   1.406       .  A
C1100      H1109   1.080       .  S
C1101      C1102   1.400       .  A
C1101      S1105   1.801       .  S
C1102      C1103   1.399       .  A
C1103      C1104   1.402       .  A
C1103      H1110   1.083       .  S
C1104      S1106   1.800       .  S
S1105      H1108   1.406       .  S
S1106      H1107   1.407       .  S
C1111      C1112   1.408       .  A
C1111      C1116   1.420       .  A
C1112      C1113   1.405       .  A
C1112      H1121   1.082       .  S
C1113      C1114   1.418       .  A
C1113      S1117   1.805       .  S
C1114      C1115   1.407       .  A
C1115      C1116   1.408       .  A
C1115      H1122   1.084       .  S
C1116      S1118   1.804       .  S
S1117      H1120   1.407       .  S
S1118      H1119   1.407       .  S
C1123      C1124   1.410       .  A
C1123      C1128   1.426       .  A
C1124      C1125   1.420       .  A
C1124      H1133   1.083       .  S
C1125      C1126   1.419       .  A
C1125      S1129   1.802       .  S
C1126      C1127   1.390       .  A
C1127      C1128   1.389       .  A
C1127      H1134   1.084       .  S
C1128      S1130   1.802       .  S
S1129      H1132   1.404       .  S
S1130      H1131   1.408       .  S
C1135      C1136   1.406       .  A
C1135      C1140   1.419       .  A
C1136      C1137   1.392       .  A
C1136      H1145   1.084       .  S
C1137      C1138   1.411       .  A
C1137      S1141   1.806       .  S
C1138      C1139   1.405       .  A
C1139      C1140   1.410       .  A
C1139      H1146   1.083       .  S
C1140      S1142   1.802       .  S
S1141      H1144   1.406       .  S
S1142      H1143   1.407       .  S
C1147      C1148   1.397       .  A
C1147      C1152   1.414       .  A
C1148      C1149   1.393       .  A
C1148      H1157   1.080   1_655  S
C1149      C1150   1.416       .  A
C1149      S1153   1.800   1_655  S
C1150      C1151   1.411       .  A
C1151      C1152   1.412       .  A
C1151      H1158   1.083       .  S
C1152      S1154   1.805       .  S
S1153      H1156   1.406       .  S
S1154      H1155   1.402       .  S
C1159      C1160   1.408       .  A
C1159      C1164   1.411       .  A
C1160      C1161   1.415       .  A
C1160      H1169   1.083       .  S
C1161      C1162   1.421       .  A
C1161      S1165   1.801       .  S
C1162      C1163   1.411       .  A
C1163      C1164   1.399       .  A
C1163      H1170   1.084       .  S
C1164      S1166   1.803       .  S
S1165      H1168   1.407       .  S
S1166      H1167   1.405       .  S
C1171      C1172   1.399       .  A
C1171      C1176   1.419       .  A
C1172      C1173   1.398       .  A
C1172      H1181   1.083       .  S
C1173      C1174   1.424       .  A
C1173      S1177   1.811       .  S
C1174      C1175   1.409       .  A
C1175      C1176   1.416       .  A
C1175      H1182   1.084       .  S
C1176      S1178   1.802       .  S
S1177      H1180   1.407       .  S
S1178      H1179   1.405       .  S
C1183      C1184   1.408       .  A
C1183      C1188   1.424       .  A
C1184      C1185   1.397       .  A
C1184      H1193   1.079       .  S
C1185      C1186   1.405       .  A
C1185      S1189   1.794   1_455  S
C1186      C1187   1.400       .  A
C1187      C1188   1.403       .  A
C1187      H1194   1.084       .  S
C1188      S1190   1.803       .  S
S1189      H1192   1.406       .  S
S1190      H1191   1.407       .  S
C1195      C1196   1.408       .  A
C1195      C1200   1.415       .  A
C1196      C1197   1.394       .  A
C1196      H1205   1.082       .  S
C1197      C1198   1.411       .  A
C1197      S1201   1.805       .  S
C1198      C1199   1.409       .  A
C1199      C1200   1.416       .  A
C1199      H1206   1.082       .  S
C1200      S1202   1.805       .  S
S1201      H1204   1.403       .  S
S1202      H1203   1.407       .  S
C1207      C1208   1.404       .  A
C1207      C1212   1.421       .  A
C1208      C1209   1.398       .  A
C1208      H1217   1.079       .  S
C1209      C1210   1.418       .  A
C1209      S1213   1.807       .  S
C1210      C1211   1.407       .  A
C1211      C1212   1.411       .  A
C1211      H1218   1.083       .  S
C1212      S1214   1.803       .  S
S1213      H1216   1.407       .  S
S1214      H1215   1.407       .  S
C1219      C1220   1.394       .  A
C1219      C1224   1.415       .  A
C1220      C1221   1.390       .  A
C1220      H1229   1.083       .  S
C1221      C1222   1.422       .  A
C1221      S1225   1.811       .  S
C1222      C1223   1.406       .  A
C1223      C1224   1.412       .  A
C1223      H1230   1.083       .  S
C1224      S1226   1.801       .  S
S1225      H1228   1.407       .  S
S1226      H1227   1.405       .  S
C1231      C1232   1.417       .  A
C1231      C1236   1.421       .  A
C1232      C1233   1.407       .  A
C1232      H1241   1.082       .  S
C1233      C1234   1.412       .  A
C1233      S1237   1.803       .  S
C1234      C1235   1.405       .  A
C1235      C1236   1.396       .  A
C1235      H1242   1.085       .  S
C1236      S1238   1.805       .  S
S1237      H1240   1.400       .  S
S1238      H1239   1.406       .  S
C1243      C1244   1.409       .  A
C1243      C1248   1.415       .  A
C1244      C1245   1.400       .  A
C1244      H1253   1.083       .  S
C1245      C1246   1.411       .  A
C1245      S1249   1.800       .  S
C1246      C1247   1.406       .  A
C1247      C1248   1.404       .  A
C1247      H1254   1.083       .  S
C1248      S1250   1.807       .  S
S1249      H1252   1.406       .  S
S1250      H1251   1.407       .  S
C1255      C1256   1.408       .  A
C1255      C1260   1.421       .  A
C1256      C1257   1.407       .  A
C1256      H1265   1.079       .  S
C1257      C1258   1.415       .  A
C1257      S1261   1.809       .  S
C1258      C1259   1.406       .  A
C1259      C1260   1.412       .  A
C1259      H1266   1.084       .  S
C1260      S1262   1.802       .  S
S1261      H1264   1.407       .  S
S1262      H1263   1.407       .  S
C1267      C1268   1.405       .  A
C1267      C1272   1.408       .  A
C1268      C1269   1.404       .  A
C1268      H1277   1.084       .  S
C1269      C1270   1.426       .  A
C1269      S1273   1.805       .  S
C1270      C1271   1.416       .  A
C1271      C1272   1.411       .  A
C1271      H1278   1.080       .  S
C1272      S1274   1.793       .  S
S1273      H1276   1.407       .  S
S1274      H1275   1.406       .  S
C1279      C1280   1.401       .  A
C1279      C1284   1.412       .  A
C1280      C1281   1.396       .  A
C1280      H1289   1.056   1_545  S
C1281      C1282   1.412       .  A
C1281      S1285   1.804   1_545  S
C1282      C1283   1.410       .  A
C1283      C1284   1.406       .  A
C1283      H1290   1.082       .  S
C1284      S1286   1.805       .  S
S1285      H1288   1.407       .  S
S1286      H1287   1.401       .  S
C1291      C1292   1.402       .  A
C1291      C1296   1.413       .  A
C1292      C1293   1.402       .  A
C1292      H1301   1.083       .  S
C1293      C1294   1.422       .  A
C1293      S1297   1.810       .  S
C1294      C1295   1.410       .  A
C1295      C1296   1.406       .  A
C1295      H1302   1.084       .  S
C1296      S1298   1.801       .  S
S1297      H1300   1.407       .  S
S1298      H1299   1.406       .  S
C1303      C1304   1.407       .  A
C1303      C1308   1.425       .  A
C1304      C1305   1.408       .  A
C1304      H1313   1.081       .  S
C1305      C1306   1.424       .  A
C1305      S1309   1.804       .  S
C1306      C1307   1.409       .  A
C1307      C1308   1.415       .  A
C1307      H1314   1.083       .  S
C1308      S1310   1.802       .  S
S1309      H1312   1.407       .  S
S1310      H1311   1.408       .  S
C1315      C1316   1.415       .  A
C1315      C1320   1.416       .  A
C1316      C1317   1.403       .  A
C1316      H1325   1.082       .  S
C1317      C1318   1.410       .  A
C1317      S1321   1.811       .  S
C1318      C1319   1.412       .  A
C1319      C1320   1.409       .  A
C1319      H1326   1.081       .  S
C1320      S1322   1.801       .  S
S1321      H1324   1.407       .  S
S1322      H1323   1.400       .  S
