geometry optimzed in LAMMPS
_audit_creation_date              2020-11-30 
_audit_creation_method            'lammps2cif' 
_symmetry_space_group_name_H-M    'P1' 
_symmetry_Int_Tables_number       1 
_symmetry_cell_setting            triclinic 
loop_ 
_symmetry_equiv_pos_as_xyz 
  x,y,z 
_cell_length_a                    110.66896274 
_cell_length_b                    110.73401628692844 
_cell_length_c                    26.601772131416617 
_cell_angle_alpha                 89.8575130876012 
_cell_angle_beta                  90.1010526283916 
_cell_angle_gamma                 119.99710400602464 
loop_ 
_atom_site_label 
_atom_site_type_symbol 
_atom_site_fract_x 
_atom_site_fract_y 
_atom_site_fract_z 
_atom_site_charge 
O1          O  0.76135475  0.27009867  0.55455172    -0.71300
O2          O  0.73506859  0.24671062  0.44598001    -0.72300
O3          O  0.73564464  0.24444777  0.55124750    -0.60900
O4          O  0.76082211  0.27236311  0.44918993    -0.69400
O5          O  0.77251925  0.26108111  0.44164329    -0.68900
O6          O  0.74716387  0.23300192  0.54354219    -0.60200
O7          O  0.74677079  0.23541347  0.43795516    -0.72700
O8          O  0.77296717  0.25871740  0.54735154    -0.71400
Cu9        Cu  0.74783826  0.25880776  0.50050122     1.04600
Cu10       Cu  0.76026124  0.24665555  0.49234638     1.04300
C11         C  0.77142868  0.26828251  0.56786668     0.94900
C12         C  0.73661806  0.23718086  0.42528315     0.94000
C13         C  0.73724498  0.23414786  0.56314950     0.86100
C14         C  0.77077380  0.27128492  0.42958415     0.92400
N15         N  0.50074734  0.84667323  0.89453128    -0.25700
N16         N  0.49948640  0.83605427  0.92129635    -0.33500
C17         C  0.49786460  0.82578575  0.89066337     0.02700
C18         C  0.49820958  0.83007117  0.84177536     0.08700
C19         C  0.50015244  0.84345277  0.84530892    -0.04400
H20         H  0.49693731  0.81605027  0.90316653     0.09300
H21         H  0.50096996  0.85024741  0.81460979     0.10500
Cu22       Cu  0.50117866  0.83616037  0.99779354     0.44200
Cu23       Cu  0.50293138  0.86444116  0.93008178     0.42000
Cu24       Cu  0.50670413  0.86530323  0.07054102     0.43900
N25         N  0.50472286  0.83739144  0.07352283    -0.33100
N26         N  0.50663182  0.84799464  0.10170690    -0.27300
C27         C  0.50814536  0.84516409  0.14987643    -0.03400
C28         C  0.50729299  0.83221552  0.15137490     0.08800
C29         C  0.50511427  0.82765095  0.10225757     0.02600
H30         H  0.50971227  0.85197720  0.18130486     0.10200
H31         H  0.50347244  0.81775868  0.08844783     0.09300
N32         N  0.50543774  0.88033479  0.02712283    -0.34500
N33         N  0.50397958  0.87993520  0.97761445    -0.26700
C34         C  0.50315582  0.89111700  0.96276247    -0.01900
C35         C  0.50422060  0.89904510  0.00461157     0.06700
C36         C  0.50565137  0.89183035  0.04472810     0.04800
H37         H  0.50164675  0.89314194  0.92416120     0.09900
H38         H  0.50694685  0.89476602  0.08393839     0.08700
N39         N  0.34481384  0.84992517  0.89939985    -0.25700
N40         N  0.33382277  0.84110979  0.92592187    -0.33500
C41         C  0.32352252  0.83266597  0.89479556     0.02700
C42         C  0.32814911  0.83627060  0.84592186     0.08700
C43         C  0.34178188  0.84722146  0.85010935    -0.04400
H44         H  0.31343618  0.82436701  0.90703098     0.09300
H45         H  0.34883966  0.85296640  0.81974253     0.10500
Cu46       Cu  0.33317557  0.84061192  0.00312307     0.44200
Cu47       Cu  0.36279833  0.86535924  0.93421128     0.42000
Cu48       Cu  0.36239082  0.86557875  0.07434565     0.43900
N49         N  0.33422855  0.83983081  0.08009612    -0.33100
N50         N  0.34494247  0.84881738  0.10735018    -0.27300
C51         C  0.34247412  0.84474730  0.15590429    -0.03400
C52         C  0.32961348  0.83253785  0.15889296     0.08800
C53         C  0.32471589  0.82987752  0.11000496     0.02600
H54         H  0.34968112  0.85004374  0.18638127     0.10200
H55         H  0.31493789  0.82129984  0.09677169     0.09300
N56         N  0.37826735  0.88062515  0.02930791    -0.34500
N57         N  0.37846368  0.88040482  0.97954306    -0.26700
C58         C  0.39024162  0.89160332  0.96310786    -0.01900
C59         C  0.39788905  0.89931378  0.00424515     0.06700
C60         C  0.38992151  0.89200629  0.04556380     0.04800
H61         H  0.39288313  0.89406208  0.92386918     0.09900
H62         H  0.39247961  0.89462446  0.08475063     0.08700
N63         N  0.49197035  0.15201785  0.89727506    -0.25700
N64         N  0.48812080  0.15934412  0.92518447    -0.33500
C65         C  0.48598143  0.16793184  0.89580289     0.02700
C66         C  0.48879334  0.16620283  0.84652306     0.08700
C67         C  0.49246685  0.15588080  0.84879768    -0.04400
H68         H  0.48284482  0.17510289  0.90986212     0.09300
H69         H  0.49574790  0.15184975  0.81794481     0.10500
Cu70       Cu  0.48771391  0.15900314  0.00246301     0.44200
Cu71       Cu  0.49644784  0.13755384  0.92983279     0.42000
Cu72       Cu  0.49633972  0.13706019  0.07110077     0.43900
N73         N  0.49119701  0.16093256  0.07874899    -0.33100
N74         N  0.49440096  0.15284471  0.10533826    -0.27300
C75         C  0.49685267  0.15741623  0.15327027    -0.03400
C76         C  0.49530937  0.16908582  0.15627090     0.08800
C77         C  0.49167454  0.17093080  0.10837223     0.02600
H78         H  0.50008747  0.15297117  0.18303135     0.10200
H79         H  0.48976319  0.17911572  0.09564681     0.09300
N80         N  0.49771261  0.12268894  0.02480779    -0.34500
N81         N  0.49798598  0.12294654  0.97500444    -0.26700
C82         C  0.49864707  0.11182058  0.95840491    -0.01900
C83         C  0.49872063  0.10415713  0.99952990     0.06700
C84         C  0.49814527  0.11139715  0.04090939     0.04800
H85         H  0.49864870  0.10929869  0.91915789     0.09900
H86         H  0.49810156  0.10871893  0.08005711     0.08700
N87         N  0.65869916  0.15975731  0.10039722    -0.25700
N88         N  0.66837560  0.16984664  0.07264196    -0.33500
C89         C  0.67761829  0.17999549  0.10250463     0.02700
C90         C  0.67362815  0.17618359  0.15176641     0.08700
C91         C  0.66160940  0.16322371  0.14922825    -0.04400
H92         H  0.68670484  0.18937275  0.08917187     0.09300
H93         H  0.65533299  0.15691610  0.18035839     0.10500
Cu94       Cu  0.66907908  0.16944919  0.99576166     0.44200
Cu95       Cu  0.64209484  0.14219929  0.06829522     0.42000
Cu96       Cu  0.64257749  0.14079564  0.92835575     0.43900
N97         N  0.66987711  0.16739556  0.91952457    -0.33100
N98         N  0.66019899  0.15689256  0.89333304    -0.27300
C99         C  0.66403625  0.15882601  0.84451420    -0.03400
C100        C  0.67680787  0.17111200  0.84035790     0.08800
C101        C  0.68008024  0.17621146  0.88879544     0.02600
H102        H  0.65804110  0.15178495  0.81449450     0.10200
H103        H  0.68908238  0.18582270  0.90094449     0.09300
N104        N  0.62674051  0.12611607  0.97465140    -0.34500
N105        N  0.62667809  0.12653654  0.02437933    -0.26700
C106        C  0.61509419  0.11525471  0.04158528    -0.01900
C107        C  0.60739673  0.10727082  0.00094569     0.06700
C108        C  0.61514790  0.11456903  0.95916723     0.04800
H109        H  0.61266858  0.11293635  0.08100849     0.09900
H110        H  0.61255700  0.11179772  0.92011637     0.08700
C111        C  0.49038113  0.98978647  0.00236289     0.03900
C112        C  0.50326760  0.98994956  0.00388874     0.03800
C113        C  0.51583846  0.00281179  0.00460699    -0.16700
C114        C  0.51590828  0.01554746  0.00347711     0.03900
C115        C  0.50299375  0.01531888  0.00212406     0.03800
C116        C  0.49045123  0.00248616  0.00119213    -0.16700
H117        H  0.48060440  0.00239006  0.00064193     0.05900
H118        H  0.52567924  0.00290131  0.00495923     0.05900
O119        O  0.25807818  0.49100126  0.45079298    -0.71300
O120        O  0.23104074  0.48898700  0.55513186    -0.72300
O121        O  0.23242850  0.49127150  0.44949870    -0.60900
O122        O  0.25687343  0.48885675  0.55669232    -0.69400
O123        O  0.26833274  0.51186326  0.56238030    -0.68900
O124        O  0.24418103  0.51428848  0.45571092    -0.60200
O125        O  0.24267646  0.51201680  0.56067798    -0.72700
O126        O  0.26969571  0.51400967  0.45704478    -0.71400
Cu127      Cu  0.24419766  0.48921071  0.50282835     1.04600
Cu128      Cu  0.25662106  0.51381886  0.50918417     1.04300
C129        C  0.26831620  0.50282514  0.43788576     0.94900
C130        C  0.23237271  0.50023420  0.57355726     0.94000
C131        C  0.23428662  0.50319815  0.43634769     0.86100
C132        C  0.26668710  0.50006537  0.57597583     0.92400
O133        O  0.26838236  0.76183188  0.45705852    -0.71300
O134        O  0.24065237  0.73728724  0.56189516    -0.72300
O135        O  0.24274105  0.73622045  0.45632586    -0.60900
O136        O  0.26658064  0.76281694  0.56259728    -0.69400
O137        O  0.25544605  0.77464455  0.55419977    -0.68900
O138        O  0.23114747  0.74755915  0.44716517    -0.60200
O139        O  0.22943285  0.74902495  0.55324385    -0.72700
O140        O  0.25688109  0.77327785  0.44839502    -0.71400
Cu141      Cu  0.25496108  0.74913504  0.50980536     1.04600
Cu142      Cu  0.24281652  0.76152454  0.50050003     1.04300
C143        C  0.26707616  0.77154970  0.43629860     0.94900
C144        C  0.23054858  0.73920615  0.57393294     0.94000
C145        C  0.23313694  0.73752206  0.43486172     0.86100
C146        C  0.26506299  0.77311789  0.57476425     0.92400
N147        N  0.15729727  0.50446870  0.11105306    -0.25700
N148        N  0.16704925  0.50382350  0.08468105    -0.33500
C149        C  0.17745801  0.50565413  0.11516458     0.02700
C150        C  0.17418192  0.50753460  0.16343718     0.08700
C151        C  0.16125074  0.50664962  0.15967389    -0.04400
H152        H  0.18654121  0.50517374  0.10313015     0.09300
H153        H  0.15515447  0.50745112  0.18986134     0.10500
Cu154      Cu  0.16600473  0.50019760  0.00893125     0.44200
Cu155      Cu  0.13924219  0.50199800  0.07756373     0.42000
Cu156      Cu  0.13692649  0.49617667  0.93913938     0.43900
N157        N  0.16488729  0.49829648  0.93228031    -0.33100
N158        N  0.15420270  0.49680581  0.90534054    -0.27300
C159        C  0.15710842  0.49654671  0.85627705    -0.03400
C160        C  0.17033231  0.49809616  0.85268499     0.08800
C161        C  0.17486399  0.49909986  0.90168733     0.02600
H162        H  0.15032116  0.49575367  0.82559821     0.10200
H163        H  0.18474963  0.50042553  0.91437503     0.09300
N164        N  0.12175444  0.49692171  0.98326957    -0.34500
N165        N  0.12267635  0.49914156  0.03238800    -0.26700
C166        C  0.11137999  0.49964585  0.04789490    -0.01900
C167        C  0.10290130  0.49765444  0.00675872     0.06700
C168        C  0.10980075  0.49590603  0.96649738     0.04800
H169        H  0.10955123  0.50142781  0.08638336     0.09900
H170        H  0.10664143  0.49452030  0.92746450     0.08700
N171        N  0.15753095  0.65671587  0.10957036    -0.25700
N172        N  0.16761768  0.66635442  0.08169210    -0.33500
C173        C  0.17800209  0.67538045  0.11126975     0.02700
C174        C  0.17444815  0.67135940  0.16068709     0.08700
C175        C  0.16130611  0.65946548  0.15835109    -0.04400
H176        H  0.18721339  0.68458444  0.09763112     0.09300
H177        H  0.15493080  0.65334944  0.18961977     0.10500
Cu178      Cu  0.16673579  0.66800512  0.00518603     0.44200
Cu179      Cu  0.13919065  0.64093090  0.07706053     0.42000
Cu180      Cu  0.13565097  0.64587041  0.93965457     0.43900
N181        N  0.16436556  0.67044172  0.93004631    -0.33100
N182        N  0.15284999  0.66239048  0.90460483    -0.27300
C183        C  0.15468246  0.66694601  0.85659430    -0.03400
C184        C  0.16796156  0.67853234  0.85230817     0.08800
C185        C  0.17375557  0.68034178  0.89965410     0.02600
H186        H  0.14687668  0.66234584  0.82736044     0.10200
H187        H  0.18409981  0.68824676  0.91128435     0.09300
N188        N  0.12111385  0.62919834  0.98316212    -0.34500
N189        N  0.12251852  0.62716960  0.03145233    -0.26700
C190        C  0.11159588  0.61484341  0.04567836    -0.01900
C191        C  0.10283772  0.60886463  0.00469031     0.06700
C192        C  0.10921830  0.61831013  0.96587114     0.04800
H193        H  0.11012334  0.61057426  0.08326241     0.09900
H194        H  0.10571912  0.61714828  0.92726425     0.08700
N195        N  0.84244364  0.35304371  0.10014240    -0.25700
N196        N  0.83180009  0.34390589  0.07303954    -0.33500
C197        C  0.82200716  0.33442828  0.10341281     0.02700
C198        C  0.82662559  0.33769001  0.15240612     0.08700
C199        C  0.83967615  0.34959359  0.14905510    -0.04400
H200        H  0.81259554  0.32534100  0.09036771     0.09300
H201        H  0.84677844  0.35510601  0.17957277     0.10500
Cu202      Cu  0.83184178  0.34304807  0.99621685     0.44200
Cu203      Cu  0.86051519  0.36846201  0.06662191     0.42000
Cu204      Cu  0.86389941  0.36296745  0.93073139     0.43900
N205        N  0.83444879  0.33964518  0.92247561    -0.33100
N206        N  0.84634003  0.34654713  0.89784672    -0.27300
C207        C  0.84466290  0.34098812  0.85160648    -0.03400
C208        C  0.83103769  0.32999875  0.84745251     0.08800
C209        C  0.82491236  0.32957923  0.89312818     0.02600
H210        H  0.85282813  0.34451033  0.82367117     0.10200
H211        H  0.81427816  0.32250431  0.90454755     0.09300
N212        N  0.87883586  0.37931602  0.97365151    -0.34500
N213        N  0.87750506  0.38133343  0.02187108    -0.26700
C214        C  0.88893647  0.39302218  0.03711967    -0.01900
C215        C  0.89793624  0.39870796  0.99671180     0.06700
C216        C  0.89116983  0.38970206  0.95712066     0.04800
H217        H  0.89058892  0.39695955  0.07515327     0.09900
H218        H  0.89475336  0.39075418  0.91871773     0.08700
N219        N  0.84088624  0.49314133  0.09135915    -0.25700
N220        N  0.83138545  0.49368112  0.06286140    -0.33500
C221        C  0.82212973  0.49481205  0.09191363     0.02700
C222        C  0.82588269  0.49508590  0.14162143     0.08700
C223        C  0.83781640  0.49388564  0.13998764    -0.04400
H224        H  0.81326900  0.49536853  0.07757120     0.09300
H225        H  0.84401393  0.49395404  0.17159119     0.10500
Cu226      Cu  0.83139108  0.49356373  0.98566972     0.44200
Cu227      Cu  0.85771011  0.49220967  0.05959934     0.42000
Cu228      Cu  0.85762546  0.49142879  0.91829634     0.43900
N229        N  0.83228375  0.49425167  0.90854105    -0.33100
N230        N  0.84177802  0.49316857  0.88212863    -0.27300
C231        C  0.83940491  0.49408867  0.83279370    -0.03400
C232        C  0.82795791  0.49603624  0.82858461     0.08800
C233        C  0.82375199  0.49601769  0.87744621     0.02600
H234        H  0.84570708  0.49371267  0.80246801     0.10200
H235        H  0.81502339  0.49710389  0.88965607     0.09300
N236        N  0.87321920  0.49208012  0.96471491    -0.34500
N237        N  0.87344706  0.49262413  0.01451959    -0.26700
C238        C  0.88564736  0.49406830  0.03081454    -0.01900
C239        C  0.89345905  0.49439957  0.98952779     0.06700
C240        C  0.88518321  0.49305034  0.94841406     0.04800
H241        H  0.88864060  0.49491376  0.06993525     0.09900
H242        H  0.88788520  0.49331934  0.90921539     0.08700
C243        C  0.01427037  0.50273544  0.99651673     0.03900
C244        C  0.01401085  0.51533386  0.99303635     0.03800
C245        C  0.00111784  0.51493190  0.99141916    -0.16700
C246        C  0.98846345  0.50219069  0.99315016     0.03900
C247        C  0.98881060  0.48959046  0.99635704     0.03800
C248        C  0.00169029  0.49003649  0.99838723    -0.16700
H249        H  0.00193166  0.48037548  0.00052457     0.05900
H250        H  0.00093912  0.52462330  0.98952251     0.05900
O251        O  0.48556368  0.23114423  0.44165218    -0.71300
O252        O  0.48329030  0.25549311  0.54846612    -0.72300
O253        O  0.48651152  0.25729778  0.44312779    -0.60900
O254        O  0.48220210  0.22915748  0.54740628    -0.69400
O255        O  0.50515036  0.23991642  0.55601269    -0.68900
O256        O  0.50946449  0.26811470  0.45162362    -0.60200
O257        O  0.50623278  0.26623841  0.55712035    -0.72700
O258        O  0.50850869  0.24190307  0.45032230    -0.71400
Cu259      Cu  0.48360213  0.24289240  0.49486631     1.04600
Cu260      Cu  0.50813001  0.25440418  0.50414727     1.04300
C261        C  0.49736187  0.23258220  0.42912745     0.94900
C262        C  0.49446746  0.26495107  0.56911812     0.94000
C263        C  0.49860263  0.26727223  0.43123274     0.86100
C264        C  0.49303099  0.22995452  0.56787525     0.92400
O265        O  0.72905774  0.48524101  0.54127223    -0.71300
O266        O  0.75471189  0.48591521  0.43376110    -0.72300
O267        O  0.75514801  0.48572552  0.54025809    -0.60900
O268        O  0.72873817  0.48557843  0.43558733    -0.69400
O269        O  0.74013536  0.50867253  0.43590392    -0.68900
O270        O  0.76639550  0.50879510  0.54055588    -0.60200
O271        O  0.76609424  0.50898152  0.43412385    -0.72700
O272        O  0.74028604  0.50832401  0.54200030    -0.71400
Cu273      Cu  0.74154411  0.48482422  0.48771530     1.04600
Cu274      Cu  0.75362944  0.50949376  0.48819953     1.04300
C275        C  0.73035065  0.49664471  0.55783348     0.94900
C276        C  0.76456757  0.49750738  0.41710758     0.94000
C277        C  0.76510682  0.49731522  0.55655927     0.86100
C278        C  0.73010009  0.49711720  0.41988520     0.92400
O279        O  0.50605062  0.74040729  0.55799465    -0.71300
O280        O  0.51011232  0.76727625  0.44926034    -0.72300
O281        O  0.50861461  0.76728450  0.55562218    -0.60900
O282        O  0.50757437  0.74034697  0.45223869    -0.69400
O283        O  0.48453253  0.73035533  0.44863696    -0.68900
O284        O  0.48565951  0.75759618  0.55019781    -0.60200
O285        O  0.48715123  0.75736070  0.44400016    -0.72700
O286        O  0.48306867  0.73073243  0.55390590    -0.71400
Cu287      Cu  0.50888713  0.75418910  0.50388636     1.04600
Cu288      Cu  0.48431153  0.74369902  0.49897218     1.04300
C289        C  0.49390529  0.73116073  0.57270632     0.94900
C290        C  0.49929740  0.76668610  0.42950392     0.94000
C291        C  0.49728183  0.76675350  0.56916548     0.86100
C292        C  0.49584338  0.73083158  0.43520718     0.92400
N293        N  0.34501526  0.50140816  0.90533657    -0.25700
N294        N  0.33547132  0.50216104  0.93266658    -0.33500
C295        C  0.32538849  0.50142595  0.90269489     0.02700
C296        C  0.32860120  0.50010875  0.85361601     0.08700
C297        C  0.34121496  0.50022770  0.85654771    -0.04400
H298        H  0.31641703  0.50193846  0.91590139     0.09300
H299        H  0.34701710  0.49921607  0.82575950     0.10500
Cu300      Cu  0.33614098  0.50386377  0.00943907     0.44200
Cu301      Cu  0.36218968  0.50155713  0.93884318     0.42000
Cu302      Cu  0.36197118  0.50120988  0.07940742     0.43900
N303        N  0.33716444  0.50488972  0.08632982    -0.33100
N304        N  0.34648958  0.50363192  0.11329959    -0.27300
C305        C  0.34400212  0.50443622  0.16238503    -0.03400
C306        C  0.33259653  0.50641012  0.16595427     0.08800
C307        C  0.32854799  0.50657992  0.11695598     0.02600
H308        H  0.35008622  0.50373951  0.19295092     0.10200
H309        H  0.31973308  0.50747677  0.10430350     0.09300
N310        N  0.37705475  0.50079288  0.03457480    -0.34500
N311        N  0.37733654  0.50113563  0.98480826    -0.26700
C312        C  0.38889466  0.50112882  0.96919202    -0.01900
C313        C  0.39623164  0.50075289  0.01097669     0.06700
C314        C  0.38835750  0.50053735  0.05167439     0.04800
H315        H  0.39182281  0.50160016  0.93017621     0.09900
H316        H  0.39055076  0.50008709  0.09103933     0.08700
N317        N  0.48863067  0.65011736  0.10789646    -0.25700
N318        N  0.48597507  0.65876457  0.08243129    -0.33500
C319        C  0.48571476  0.66806271  0.11382041     0.02700
C320        C  0.48827054  0.66520906  0.16201620     0.08700
C321        C  0.49016048  0.65375339  0.15687710    -0.04400
H322        H  0.48414505  0.67652630  0.10192081     0.09300
H323        H  0.49234901  0.64839375  0.18643170     0.10500
Cu324      Cu  0.48354460  0.65816755  0.00598024     0.44200
Cu325      Cu  0.48990840  0.63412143  0.07144835     0.42000
Cu326      Cu  0.48602961  0.63263904  0.93165218     0.43900
N327        N  0.48365203  0.65842722  0.92900508    -0.33100
N328        N  0.48467167  0.64922307  0.90058566    -0.27300
C329        C  0.48527131  0.65303674  0.85207033    -0.03400
C330        C  0.48454917  0.66521005  0.85034816     0.08800
C331        C  0.48357833  0.66827795  0.89993495     0.02600
H332        H  0.48622537  0.64740979  0.82058168     0.10200
H333        H  0.48334469  0.67729298  0.91425305     0.09300
N334        N  0.48872314  0.61846470  0.97527168    -0.34500
N335        N  0.49017790  0.61910620  0.02478451    -0.26700
C336        C  0.49207213  0.60860304  0.04025385    -0.01900
C337        C  0.49190631  0.60095327  0.99876702     0.06700
C338        C  0.48969262  0.60752885  0.95821722     0.04800
H339        H  0.49337027  0.60666772  0.07918603     0.09900
H340        H  0.48920500  0.60483990  0.91893515     0.08700
N341        N  0.49878831  0.34480208  0.10201353    -0.25700
N342        N  0.49747720  0.33429719  0.07463227    -0.33500
C343        C  0.49873958  0.32516424  0.10405747     0.02700
C344        C  0.50104490  0.33009627  0.15281290     0.08700
C345        C  0.50094369  0.34259441  0.15022498    -0.04400
H346        H  0.49779099  0.31550827  0.09072804     0.09300
H347        H  0.50249319  0.34964343  0.18081009     0.10500
Cu348      Cu  0.49446821  0.33280808  0.99848036     0.44200
Cu349      Cu  0.49769072  0.36136741  0.06966554     0.42000
Cu350      Cu  0.49492861  0.36037940  0.92911731     0.43900
N351        N  0.49325715  0.33266160  0.92171242    -0.33100
N352        N  0.49366426  0.34284307  0.89453179    -0.27300
C353        C  0.49306241  0.33947355  0.84545309    -0.03400
C354        C  0.49209483  0.32647196  0.84229138     0.08800
C355        C  0.49233546  0.32259874  0.89145682     0.02600
H356        H  0.49315194  0.34589369  0.81457973     0.10200
H357        H  0.49214425  0.31324391  0.90451446     0.09300
N358        N  0.49602086  0.37617246  0.97531109    -0.34500
N359        N  0.49688505  0.37644807  0.02502996    -0.26700
C360        C  0.49748316  0.38818711  0.04185560    -0.01900
C361        C  0.49701581  0.39574567  0.00102185     0.06700
C362        C  0.49607485  0.38775887  0.95951422     0.04800
H363        H  0.49852829  0.39113289  0.08104649     0.09900
H364        H  0.49534776  0.39009997  0.92050410     0.08700
N365        N  0.65312441  0.49758950  0.88404813    -0.25700
N366        N  0.66364588  0.49854197  0.91070771    -0.33500
C367        C  0.67293232  0.49801127  0.87991767     0.02700
C368        C  0.66811800  0.49669989  0.83122551     0.08700
C369        C  0.65555117  0.49656803  0.83500841    -0.04400
H370        H  0.68250520  0.49852979  0.89222072     0.09300
H371        H  0.64855149  0.49545768  0.80465142     0.10500
Cu372      Cu  0.66501964  0.50010155  0.98767164     0.44200
Cu373      Cu  0.63608869  0.49739378  0.91787846     0.42000
Cu374      Cu  0.63887244  0.50235568  0.05659457     0.43900
N375        N  0.66463800  0.50029367  0.06484056    -0.33100
N376        N  0.65501968  0.50114901  0.09127941    -0.27300
C377        C  0.65745170  0.50041835  0.14053775    -0.03400
C378        C  0.66913383  0.49891892  0.14487300     0.08800
C379        C  0.67341533  0.49897114  0.09606242     0.02600
H380        H  0.65098004  0.50055763  0.17069919     0.10200
H381        H  0.68226678  0.49809431  0.08389926     0.09300
N382        N  0.62305958  0.50149083  0.01206967    -0.34500
N383        N  0.62163148  0.49903415  0.96305858    -0.26700
C384        C  0.60968827  0.49830670  0.94767673    -0.01900
C385        C  0.60350607  0.50061890  0.98877189     0.06700
C386        C  0.61222925  0.50263228  0.02881821     0.04800
H387        H  0.60588426  0.49640163  0.90937012     0.09900
H388        H  0.61067223  0.50449007  0.06755620     0.08700
C389        C  0.48785799  0.50165390  0.00845250     0.03900
C390        C  0.50067963  0.51441715  0.00773560     0.03800
C391        C  0.51322889  0.51415363  0.00658365    -0.16700
C392        C  0.51320133  0.50145274  0.00601135     0.03900
C393        C  0.50038422  0.48872172  0.00674818     0.03800
C394        C  0.48786511  0.48898976  0.00800646    -0.16700
H395        H  0.47802044  0.47924377  0.00852149     0.05900
H396        H  0.52307970  0.52388781  0.00589113     0.05900
C397        C  0.57762627  0.51303444  0.00419492     0.14300
C398        C  0.56487724  0.50058524  0.99760668     0.01200
C399        C  0.56494411  0.48815161  0.98747885     0.16200
C400        C  0.57758404  0.48822379  0.98347303     0.25600
C401        C  0.59026781  0.50065634  0.99040630    -0.40700
C402        C  0.59023193  0.51304077  0.00097199     0.32700
C403        C  0.55157459  0.50069513  0.00009710     0.01300
F404        F  0.55276701  0.47591418  0.98250326    -0.13000
F405        F  0.60243346  0.52518188  0.00722340    -0.13500
C406        C  0.54254938  0.49639354  0.95843363     0.16200
C407        C  0.53017654  0.49686880  0.96008733     0.25600
C408        C  0.52664767  0.50165413  0.00338385    -0.40700
C409        C  0.53569688  0.50607056  0.04491009     0.32600
C410        C  0.54802618  0.50548615  0.04345906     0.14300
F411        F  0.54587407  0.49200174  0.91576430    -0.13000
F412        F  0.53234649  0.51052361  0.08737590    -0.13500
F413        F  0.52166862  0.49277569  0.91927161    -0.15800
F414        F  0.55637661  0.50933481  0.08469846    -0.14400
F415        F  0.57785932  0.52523184  0.01277874    -0.14400
F416        F  0.57745934  0.47610787  0.97423416    -0.15800
C417        C  0.49243900  0.42607816  0.04241561     0.14300
C418        C  0.49893525  0.43568059  0.00309443     0.01200
C419        C  0.50481336  0.43211161  0.96305434     0.16200
C420        C  0.50417189  0.41915286  0.96227097     0.25600
C421        C  0.49765405  0.40949043  0.00165001    -0.40700
C422        C  0.49180375  0.41313240  0.04177259     0.32700
C423        C  0.49942667  0.44933219  0.00378615     0.01300
F424        F  0.51144873  0.44131349  0.92514024    -0.13000
F425        F  0.48503601  0.40400475  0.07971361    -0.13500
C426        C  0.50558230  0.45852992  0.04442008     0.16200
C427        C  0.50563902  0.47118721  0.04590147     0.25600
C428        C  0.49983267  0.47503222  0.00624387    -0.40700
C429        C  0.49360356  0.46581748  0.96575082     0.32600
C430        C  0.49339670  0.45307319  0.96452760     0.14300
F431        F  0.51164714  0.45529206  0.08253320    -0.13000
F432        F  0.48783928  0.46924280  0.92713733    -0.13500
F433        F  0.51116657  0.47960395  0.08649798    -0.15800
F434        F  0.48706806  0.44425253  0.92545298    -0.14400
F435        F  0.48638073  0.42911422  0.08097253    -0.14400
F436        F  0.51032230  0.41627482  0.92364085    -0.15800
C437        C  0.50397106  0.57550767  0.03644244     0.14300
C438        C  0.49750378  0.56500565  0.00014976     0.01200
C439        C  0.48944938  0.56648535  0.96232363     0.16200
C440        C  0.48767680  0.57817886  0.96144205     0.25600
C441        C  0.49402177  0.58867292  0.99830535    -0.40700
C442        C  0.50234504  0.58724149  0.03540133     0.32700
C443        C  0.49891332  0.55237630  0.00281158     0.01300
F444        F  0.48293155  0.55637516  0.92715211    -0.13000
F445        F  0.50925312  0.59735465  0.07016959    -0.13500
C446        C  0.49395467  0.54357523  0.04507265     0.16200
C447        C  0.49514312  0.53159574  0.04775829     0.25600
C448        C  0.50106921  0.52804281  0.00780592    -0.40700
C449        C  0.50646881  0.53708931  0.96627868     0.32600
C450        C  0.50535379  0.54914201  0.96372269     0.14300
F451        F  0.48764412  0.54642206  0.08326413    -0.13000
F452        F  0.51238492  0.53398702  0.92743625    -0.13500
F453        F  0.49036820  0.52335546  0.08920742    -0.15800
F454        F  0.51057954  0.55768028  0.92315750    -0.14400
F455        F  0.51203728  0.57446139  0.07276232    -0.14400
F456        F  0.47933963  0.57892701  0.92556360    -0.15800
C457        C  0.43185461  0.50704362  0.05209381     0.14300
C458        C  0.43517935  0.50072079  0.01292235     0.01200
C459        C  0.42554734  0.49419015  0.97376208     0.16200
C460        C  0.41291262  0.49417471  0.97320425     0.25600
C461        C  0.40959550  0.50064666  0.01201373    -0.40700
C462        C  0.41918288  0.50699895  0.05173036     0.32700
C463        C  0.44874730  0.50107893  0.01221791     0.01300
F464        F  0.42829375  0.48759890  0.93631359    -0.13000
F465        F  0.41657209  0.51361947  0.08941055    -0.13500
C466        C  0.45272437  0.49555551  0.05247826     0.16200
C467        C  0.46539966  0.49564283  0.05095384     0.25600
C468        C  0.47428443  0.50125809  0.00924595    -0.40700
C469        C  0.47028700  0.50669560  0.96889027     0.32600
C470        C  0.45768941  0.50673076  0.97057345     0.14300
F471        F  0.44423798  0.48988022  0.09290096    -0.13000
F472        F  0.47855277  0.51188125  0.92769063    -0.13500
F473        F  0.46915450  0.49048074  0.09059023    -0.15800
F474        F  0.45427525  0.51243438  0.93172504    -0.14400
F475        F  0.44106085  0.51362096  0.09002431    -0.14400
F476        F  0.40377808  0.48746263  0.93527305    -0.15800
C477        C  0.49499585  0.68390974  0.72455441     0.14300
C478        C  0.48768589  0.69124491  0.72524425     0.01200
C479        C  0.47902877  0.68963395  0.76612835     0.16200
C480        C  0.47781839  0.68095808  0.80623367     0.25600
C481        C  0.48525211  0.67368997  0.80615700    -0.40700
C482        C  0.49378258  0.67516892  0.76469180     0.32700
C483        C  0.48944109  0.70104140  0.68446043     0.01300
F484        F  0.47202211  0.69678642  0.76778908    -0.13000
F485        F  0.50142092  0.66866790  0.76390532    -0.13500
C486        C  0.47802986  0.69868800  0.65448340     0.16200
C487        C  0.47946822  0.70842320  0.61801862     0.25600
C488        C  0.49237726  0.72077753  0.61116012    -0.40700
C489        C  0.50384978  0.72297074  0.64098127     0.32600
C490        C  0.50236728  0.71317635  0.67725613     0.14300
F491        F  0.46548407  0.68690305  0.66049318    -0.13000
F492        F  0.51645527  0.73473649  0.63600967    -0.13500
F493        F  0.46824295  0.70562006  0.58908939    -0.15800
F494        F  0.51346040  0.71574702  0.70655287    -0.14400
F495        F  0.50337601  0.68530641  0.68512085    -0.14400
F496        F  0.46927444  0.67962847  0.84500138    -0.15800
C497        C  0.50566345  0.71327753  0.33366494     0.14300
C498        C  0.49367220  0.70002316  0.33172276     0.01200
C499        C  0.48273674  0.69668069  0.36562432     0.16200
C500        C  0.48351874  0.70664004  0.39970164     0.25600
C501        C  0.49529076  0.72014686  0.40042703    -0.40700
C502        C  0.50649671  0.72326261  0.36782858     0.32700
C503        C  0.49185548  0.69031619  0.29057096     0.01300
F504        F  0.47119149  0.68380340  0.36506591    -0.13000
F505        F  0.51799466  0.73616754  0.36738135    -0.13500
C506        C  0.50009507  0.68396980  0.28753056     0.16200
C507        C  0.49867349  0.67539597  0.24655669     0.25600
C508        C  0.48906417  0.67317773  0.20787534    -0.40700
C509        C  0.48064033  0.67935717  0.21189990     0.32600
C510        C  0.48205984  0.68784361  0.25273828     0.14300
F511        F  0.50959047  0.68619672  0.32396452    -0.13000
F512        F  0.47092867  0.67716469  0.17639756    -0.13500
F513        F  0.50711478  0.66980013  0.24370871    -0.15800
F514        F  0.47412101  0.69402665  0.25466375    -0.14400
F515        F  0.51627556  0.71676382  0.30075807    -0.14400
F516        F  0.47278480  0.70302346  0.43218683    -0.15800
C517        C  0.71374247  0.50890048  0.31952713     0.14300
C518        C  0.70047286  0.49707336  0.31456229     0.01200
C519        C  0.69681398  0.48536149  0.34485417     0.16200
C520        C  0.70639810  0.48537474  0.37925092     0.25600
C521        C  0.71988030  0.49711808  0.38366638    -0.40700
C522        C  0.72338314  0.50894354  0.35368639     0.32700
C523        C  0.69107939  0.49648873  0.27403924     0.01300
F524        F  0.68396924  0.47386483  0.34072793    -0.13000
F525        F  0.73630137  0.52039601  0.35603269    -0.13500
C526        C  0.68919668  0.48821569  0.23171775     0.16200
C527        C  0.68164329  0.48866835  0.19045955     0.25600
C528        C  0.67576882  0.49738784  0.19087480    -0.40700
C529        C  0.67709818  0.50519049  0.23433058     0.32600
C530        C  0.68481932  0.50482491  0.27553333     0.14300
F531        F  0.69519263  0.48011307  0.22957805    -0.13000
F532        F  0.67158868  0.51372354  0.23592958    -0.13500
F533        F  0.68014587  0.48059559  0.14996112    -0.15800
F534        F  0.68645352  0.51281768  0.31641913    -0.14400
F535        F  0.71755225  0.52021124  0.28969530    -0.14400
F536        F  0.70240586  0.47392513  0.40847761    -0.15800
C537        C  0.68443986  0.50289718  0.70185144     0.14300
C538        C  0.69089885  0.49474239  0.70439293     0.01200
C539        C  0.68893713  0.48649279  0.74704892     0.16200
C540        C  0.68112676  0.48682436  0.78757940     0.25600
C541        C  0.67503232  0.49532989  0.78597400    -0.40700
C542        C  0.67647109  0.50313243  0.74233726     0.32700
C543        C  0.70050406  0.49548881  0.66446731     0.01300
F544        F  0.69508266  0.47853849  0.75024831    -0.13000
F545        F  0.67083341  0.51155033  0.74000773    -0.13500
C546        C  0.71342941  0.50769837  0.65816655     0.16200
C547        C  0.72314686  0.50811302  0.62362699     0.25600
C548        C  0.72009269  0.49626885  0.59467974    -0.40700
C549        C  0.70696162  0.48409478  0.60063285     0.32600
C550        C  0.69729998  0.48372408  0.63533433     0.14300
F551        F  0.71682847  0.51908401  0.68687713    -0.13000
F552        F  0.70334704  0.47255843  0.57252137    -0.13500
F553        F  0.73568116  0.52000526  0.61965123    -0.15800
F554        F  0.68478694  0.47185687  0.64061464    -0.14400
F555        F  0.68608999  0.51081165  0.66057118    -0.14400
F556        F  0.67959940  0.47888101  0.82866361    -0.15800
C557        C  0.49969955  0.31643720  0.71471250     0.14300
C558        C  0.49180141  0.30180676  0.71732240     0.01200
C559        C  0.48335506  0.29545826  0.75943945     0.16200
C560        C  0.48306846  0.30355513  0.79902532     0.25600
C561        C  0.49126057  0.31820675  0.79736843    -0.40700
C562        C  0.49936751  0.32460350  0.75434168     0.32700
C563        C  0.49268994  0.29301462  0.67736242     0.01300
F564        F  0.47574556  0.28134355  0.76302590    -0.13000
F565        F  0.50748825  0.33868364  0.75168098    -0.13500
C566        C  0.50517259  0.29291944  0.66953272     0.16200
C567        C  0.50576795  0.28382213  0.63453667     0.25600
C568        C  0.49383575  0.27460628  0.60649281    -0.40700
C569        C  0.48137775  0.27494500  0.61399038     0.32600
C570        C  0.48082950  0.28402071  0.64921874     0.14300
F571        F  0.51670092  0.30134740  0.69704602    -0.13000
F572        F  0.46969772  0.26658862  0.58708414    -0.13500
F573        F  0.51800847  0.28392109  0.62892882    -0.15800
F574        F  0.46868508  0.28405688  0.65589306    -0.14400
F575        F  0.50786353  0.32277671  0.67407532    -0.14400
F576        F  0.47476905  0.29701059  0.83917470    -0.15800
C577        C  0.51416852  0.29728314  0.33738362     0.14300
C578        C  0.50224001  0.29754904  0.32078709     0.01200
C579        C  0.48922677  0.28817687  0.34192155     0.16200
C580        C  0.48809200  0.27853548  0.37826532     0.25600
C581        C  0.49995547  0.27790229  0.39390375    -0.40700
C582        C  0.51305669  0.28754780  0.37341520     0.32700
C583        C  0.50317080  0.30699756  0.27947130     0.01300
F584        F  0.47747548  0.28803008  0.32615583    -0.13000
F585        F  0.52481683  0.28746906  0.38746235    -0.13500
C586        C  0.50886616  0.30649973  0.23289474     0.16200
C587        C  0.50872199  0.31448510  0.19245529     0.25600
C588        C  0.50263894  0.32296986  0.19742765    -0.40700
C589        C  0.49734659  0.32381437  0.24452910     0.32600
C590        C  0.49767060  0.31594368  0.28522456     0.14300
F591        F  0.51406686  0.29781955  0.22584660    -0.13000
F592        F  0.49121538  0.33169264  0.25070741    -0.13500
F593        F  0.51451813  0.31383303  0.14833907    -0.15800
F594        F  0.49238711  0.31688330  0.33012345    -0.14400
F595        F  0.52693552  0.30646337  0.31855729    -0.14400
F596        F  0.47530302  0.26981418  0.39795597    -0.15800
C597        C  0.80807090  0.50748576  0.74375280     0.14300
C598        C  0.80467735  0.49832920  0.70288609     0.01200
C599        C  0.81016260  0.48927741  0.70127448     0.16200
C600        C  0.81841880  0.48900060  0.74091311     0.25600
C601        C  0.82119066  0.49768006  0.78296400    -0.40700
C602        C  0.81625353  0.50718558  0.78326728     0.32700
C603        C  0.79490704  0.49787338  0.66348688     0.01300
F604        F  0.80733032  0.48055284  0.66166375    -0.13000
F605        F  0.81924128  0.51614048  0.82224925    -0.13500
C606        C  0.79783918  0.50996037  0.63650632     0.16200
C607        C  0.78818022  0.50980412  0.60205378     0.25600
C608        C  0.77533701  0.49748627  0.59352852    -0.40700
C609        C  0.77252664  0.48532436  0.62020910     0.32600
C610        C  0.78219323  0.48554473  0.65484116     0.14300
F611        F  0.81015083  0.52195195  0.64334505    -0.13000
F612        F  0.76027213  0.47324749  0.61383665    -0.13500
F613        F  0.79154200  0.52173099  0.57667762    -0.15800
F614        F  0.77891528  0.47378978  0.68125167    -0.14400
F615        F  0.80293705  0.51632925  0.74652975    -0.14400
F616        F  0.82304461  0.47973282  0.73940067    -0.15800
C617        C  0.78082410  0.48516658  0.31831184     0.14300
C618        C  0.79308541  0.49757245  0.30616418     0.01200
C619        C  0.79597363  0.50998471  0.33040215     0.16200
C620        C  0.78673230  0.51001853  0.36621416     0.25600
C621        C  0.77434298  0.49758535  0.37848714    -0.40700
C622        C  0.77153578  0.48514430  0.35398023     0.32700
C623        C  0.80239098  0.49768162  0.26595250     0.01300
F624        F  0.80782720  0.52209682  0.31950235    -0.13000
F625        F  0.75966859  0.47293316  0.36366686    -0.13500
C626        C  0.80407517  0.50526273  0.22166663     0.16200
C627        C  0.81206776  0.50474531  0.18204743     0.25600
C628        C  0.81853944  0.49657278  0.18578234    -0.40700
C629        C  0.81719991  0.48931053  0.23084255     0.32600
C630        C  0.80913103  0.48981753  0.27052848     0.14300
F631        F  0.79756717  0.51282826  0.21612603    -0.13000
F632        F  0.82315435  0.48122403  0.23570511    -0.13500
F633        F  0.81349215  0.51232706  0.14002768    -0.15800
F634        F  0.80776794  0.48251973  0.31327878    -0.14400
F635        F  0.77762537  0.47310589  0.29440626    -0.14400
F636        F  0.79003411  0.52224224  0.38904429    -0.15800
C637        C  0.93151520  0.50744303  0.02237297     0.14300
C638        C  0.93507834  0.50019399  0.98763625     0.01200
C639        C  0.92500390  0.49126103  0.95290297     0.16200
C640        C  0.91150729  0.48939920  0.95347498     0.25600
C641        C  0.90781282  0.49644492  0.98887112    -0.40700
C642        C  0.91801312  0.50557171  0.02310972     0.32700
C643        C  0.94902046  0.50130987  0.98954444     0.01300
F644        F  0.92811485  0.48397108  0.91947136    -0.13000
F645        F  0.91504066  0.51295700  0.05655931    -0.13500
C646        C  0.95282395  0.49626561  0.03166094     0.16200
C647        C  0.96570755  0.49675280  0.03319623     0.25600
C648        C  0.97503872  0.50227261  0.99253628    -0.40700
C649        C  0.97137519  0.50762215  0.95084589     0.32600
C650        C  0.95842968  0.50706232  0.94920878     0.14300
F651        F  0.94388370  0.49056973  0.07091135    -0.13000
F652        F  0.98019601  0.51304035  0.91113790    -0.13500
F653        F  0.96909968  0.49186542  0.07454108    -0.15800
F654        F  0.95508293  0.51216274  0.90833390    -0.14400
F655        F  0.94118714  0.51643628  0.05538042    -0.14400
F656        F  0.90189929  0.48026879  0.92062566    -0.15800
C657        C  0.92703103  0.43528370  0.02679339     0.14300
C658        C  0.93772516  0.43657508  0.99512903     0.01200
C659        C  0.93537030  0.42544070  0.96374062     0.16200
C660        C  0.92246421  0.41307636  0.96432583     0.25600
C661        C  0.91165641  0.41174357  0.99598115    -0.40700
C662        C  0.91408351  0.42303109  0.02704944     0.32700
C663        C  0.95120201  0.44973449  0.99429987     0.01300
F664        F  0.94565060  0.42649324  0.93307263    -0.13000
F665        F  0.90379960  0.42245152  0.05646989    -0.13500
C666        C  0.96007423  0.45376398  0.03629926     0.16200
C667        C  0.97240460  0.46667812  0.03681067     0.25600
C668        C  0.97591244  0.47578046  0.99552283    -0.40700
C669        C  0.96718018  0.47157557  0.95307462     0.32600
C670        C  0.95490132  0.45863670  0.95248260     0.14300
F671        F  0.95673762  0.44518221  0.07677625    -0.13000
F672        F  0.97060964  0.47999010  0.91211471    -0.13500
F673        F  0.98075494  0.47046020  0.07803860    -0.15800
F674        F  0.94644490  0.45490459  0.91157062    -0.14400
F675        F  0.92905142  0.44607156  0.05663634    -0.14400
F676        F  0.92070719  0.40231591  0.93490889    -0.15800
C677        C  0.07624916  0.57057020  0.02543223     0.14300
C678        C  0.06483137  0.56899844  0.99701146     0.01200
C679        C  0.06599690  0.58057998  0.97083207     0.16200
C680        C  0.07834279  0.59351908  0.97325070     0.25600
C681        C  0.08974401  0.59514802  0.00215850    -0.40700
C682        C  0.08855915  0.58351138  0.02815776     0.32700
C683        C  0.05167856  0.55531935  0.99550525     0.01300
F684        F  0.05503818  0.57944623  0.94393407    -0.13000
F685        F  0.09947064  0.58452308  0.05498867    -0.13500
C686        C  0.04433457  0.54920959  0.04017659     0.16200
C687        C  0.03213039  0.53616791  0.03922296     0.25600
C688        C  0.02702704  0.52904851  0.99362573    -0.40700
C689        C  0.03418617  0.53520797  0.94881582     0.32600
C690        C  0.04646563  0.54822200  0.94974247     0.14300
F691        F  0.04888134  0.55600713  0.08465214    -0.13000
F692        F  0.02922808  0.52865328  0.90418195    -0.13500
F693        F  0.02521517  0.53048653  0.08279798    -0.15800
F694        F  0.05338628  0.55380263  0.90609137    -0.14400
F695        F  0.07555070  0.55945581  0.04985635    -0.14400
F696        F  0.07896491  0.60456668  0.94860792    -0.15800
C697        C  0.04479625  0.49968091  0.04515657     0.14300
C698        C  0.05202257  0.50059426  0.00044712     0.01200
C699        C  0.04671986  0.50230091  0.95445100     0.16200
C700        C  0.03443466  0.50299173  0.95324989     0.25600
C701        C  0.02748836  0.50244368  0.99801508    -0.40700
C702        C  0.03268405  0.50068858  0.04392265     0.32700
C703        C  0.06504029  0.49977156  0.00193371     0.01300
F704        F  0.05350306  0.50343960  0.91067382    -0.13000
F705        F  0.02587622  0.49972927  0.08746853    -0.13500
C706        C  0.06652370  0.49018508  0.97161250     0.16200
C707        C  0.07882745  0.48951310  0.97304789     0.25600
C708        C  0.08980905  0.49824518  0.00545742    -0.40700
C709        C  0.08826638  0.50773365  0.03608474     0.32600
C710        C  0.07608404  0.50858154  0.03395146     0.14300
F711        F  0.05593165  0.48123173  0.94135029    -0.13000
F712        F  0.09875609  0.51659267  0.06686692    -0.13500
F713        F  0.07981605  0.48001976  0.94376214    -0.15800
F714        F  0.07523476  0.51830427  0.06233948    -0.14400
F715        F  0.04927779  0.49746419  0.08994153    -0.14400
F716        F  0.02913297  0.50388488  0.90825994    -0.15800
C717        C  0.21788165  0.70606339  0.34812264     0.14300
C718        C  0.20742178  0.70733373  0.32298626     0.01200
C719        C  0.20546204  0.71862266  0.33429752     0.16200
C720        C  0.21378946  0.72847062  0.37042967     0.25600
C721        C  0.22430130  0.72722463  0.39596475    -0.40700
C722        C  0.22624568  0.71587598  0.38409654     0.32700
C723        C  0.19891279  0.69717928  0.28360095     0.01300
F724        F  0.19568433  0.72030329  0.30935864    -0.13000
F725        F  0.23623710  0.71416083  0.40721324    -0.13500
C726        C  0.18429102  0.68946302  0.28744043     0.16200
C727        C  0.17625357  0.68053645  0.24850897     0.25600
C728        C  0.18274725  0.67919408  0.20512093    -0.40700
C729        C  0.19743556  0.68647867  0.20253935     0.32600
C730        C  0.20541667  0.69543206  0.24122210     0.14300
F731        F  0.17779975  0.69072022  0.32869710    -0.13000
F732        F  0.20412960  0.68502538  0.16229663    -0.13500
F733        F  0.16213951  0.67380150  0.25224879    -0.15800
F734        F  0.21951994  0.70280485  0.23641056    -0.14400
F735        F  0.21993414  0.69520090  0.33810036    -0.14400
F736        F  0.21159250  0.73926393  0.37988290    -0.15800
C737        C  0.20950367  0.70889347  0.66320266     0.14300
C738        C  0.20033206  0.71270557  0.68500977     0.01200
C739        C  0.20093226  0.72512677  0.66933281     0.16200
C740        C  0.21069237  0.73370946  0.63331759     0.25600
C741        C  0.22004354  0.73000772  0.61180526    -0.40700
C742        C  0.21917566  0.71737393  0.62682315     0.32700
C743        C  0.19075860  0.70410668  0.72604897     0.01300
F744        F  0.19204080  0.72897467  0.68894959    -0.13000
F745        F  0.22765758  0.71313207  0.60632264    -0.13500
C746        C  0.19141363  0.71012106  0.77318097     0.16200
C747        C  0.18351313  0.70184460  0.81348862     0.25600
C748        C  0.17485946  0.68734723  0.80773704    -0.40700
C749        C  0.17370570  0.68139130  0.76009204     0.32600
C750        C  0.18156271  0.68971603  0.71954027     0.14300
F751        F  0.20018809  0.72394813  0.78092858    -0.13000
F752        F  0.16557129  0.66742628  0.75336478    -0.13500
F753        F  0.18442379  0.70803712  0.85842555    -0.15800
F754        F  0.18037330  0.68368453  0.67404919    -0.14400
F755        F  0.20940838  0.69712329  0.67830160    -0.14400
F756        F  0.21109470  0.74576935  0.62029467    -0.15800
C757        C  0.31499146  0.49835368  0.29320673     0.14300
C758        C  0.30842045  0.50640153  0.29137847     0.01200
C759        C  0.31082785  0.51529598  0.25033007     0.16200
C760        C  0.31930136  0.51580155  0.21076167     0.25600
C761        C  0.32541356  0.50729812  0.21128813    -0.40700
C762        C  0.32349957  0.49883776  0.25348935     0.32700
C763        C  0.29860207  0.50522223  0.33106173     0.01300
F764        F  0.30449930  0.52309182  0.24763890    -0.13000
F765        F  0.32922230  0.49049217  0.25518546    -0.13500
C766        C  0.30118289  0.51698543  0.35903734     0.16200
C767        C  0.29138651  0.51621285  0.39377544     0.25600
C768        C  0.27874919  0.50359623  0.40116301    -0.40700
C769        C  0.27633351  0.49173103  0.37350800     0.32600
C770        C  0.28618246  0.49256907  0.33876666     0.14300
F771        F  0.31324017  0.52926536  0.35258866    -0.13000
F772        F  0.26433105  0.47935810  0.37911330    -0.13500
F773        F  0.29438389  0.52784898  0.42027142    -0.15800
F774        F  0.28338032  0.48112869  0.31133396    -0.14400
F775        F  0.31295442  0.48985684  0.33305380    -0.14400
F776        F  0.32142994  0.52455508  0.17167274    -0.15800
C777        C  0.28504940  0.48642577  0.66074312     0.14300
C778        C  0.29484224  0.49864424  0.68537594     0.01200
C779        C  0.29553299  0.51131331  0.67348718     0.16200
C780        C  0.28641126  0.51177230  0.63814282     0.25600
C781        C  0.27636702  0.49950466  0.61367211    -0.40700
C782        C  0.27592208  0.48682634  0.62511031     0.32700
C783        C  0.30359060  0.49807750  0.72639704     0.01300
F784        F  0.30475720  0.52321333  0.69752230    -0.13000
F785        F  0.26668941  0.47477607  0.60193383    -0.13500
C786        C  0.31821449  0.50517499  0.72244772     0.16200
C787        C  0.32641312  0.50549010  0.76323099     0.25600
C788        C  0.32008406  0.49881946  0.80871325    -0.40700
C789        C  0.30540509  0.49147020  0.81198934     0.32600
C790        C  0.29726561  0.49109863  0.77121028     0.14300
F791        F  0.32453652  0.51196629  0.67932935    -0.13000
F792        F  0.29886669  0.48459997  0.85472648    -0.13500
F793        F  0.34051994  0.51288498  0.75901891    -0.15800
F794        F  0.28316431  0.48433014  0.77608239    -0.14400
F795        F  0.28432352  0.47407874  0.67135992    -0.14400
F796        F  0.28732078  0.52425796  0.62874760    -0.15800
C797        C  0.17979620  0.49035131  0.72452895     0.14300
C798        C  0.19432883  0.49936760  0.72395353     0.01200
C799        C  0.20074788  0.50840720  0.76471292     0.16200
C800        C  0.19284734  0.50827106  0.80572768     0.25600
C801        C  0.17835922  0.49899074  0.80709089    -0.40700
C802        C  0.17185908  0.49017548  0.76579382     0.32700
C803        C  0.20299094  0.49919314  0.68189941     0.01300
F804        F  0.21478296  0.51711848  0.76549609    -0.13000
F805        F  0.15793418  0.48099210  0.76625281    -0.13500
C806        C  0.21193719  0.51157276  0.65610745     0.16200
C807        C  0.22130541  0.51185260  0.62041911     0.25600
C808        C  0.22190505  0.49970041  0.60961385    -0.40700
C809        C  0.21238238  0.48711721  0.63359888     0.32600
C810        C  0.20308344  0.48690313  0.66963206     0.14300
F811        F  0.21166251  0.52346878  0.66579836    -0.13000
F812        F  0.21229968  0.47506602  0.62343098    -0.13500
F813        F  0.22972856  0.52405811  0.59633486    -0.15800
F814        F  0.19457648  0.47479142  0.69408935    -0.14400
F815        F  0.17331095  0.48168728  0.68521653    -0.14400
F816        F  0.19940132  0.51732308  0.84401950    -0.15800
C817        C  0.20509160  0.51586086  0.24595576     0.14300
C818        C  0.19854808  0.50788101  0.28882172     0.01200
C819        C  0.18394563  0.50084847  0.29252826     0.16200
C820        C  0.17591576  0.50138277  0.25282113     0.25600
C821        C  0.18244422  0.50880729  0.20871465    -0.40700
C822        C  0.19711377  0.51633040  0.20618065     0.32700
C823        C  0.20704311  0.50642691  0.32839510     0.01300
F824        F  0.17749302  0.49319319  0.33407597    -0.13000
F825        F  0.20374360  0.52398262  0.16480496    -0.13500
C826        C  0.21561515  0.51779065  0.35910452     0.16200
C827        C  0.22438143  0.51671871  0.39443918     0.25600
C828        C  0.22483445  0.50424303  0.39921212    -0.40700
C829        C  0.21602223  0.49279182  0.36857528     0.32600
C830        C  0.20720171  0.49390134  0.33351268     0.14300
F831        F  0.21546498  0.52993794  0.35479238    -0.13000
F832        F  0.21612743  0.48060425  0.37160560    -0.13500
F833        F  0.23227776  0.52787433  0.42430019    -0.15800
F834        F  0.19908877  0.48287087  0.30342953    -0.14400
F835        F  0.21921292  0.52272125  0.24181406    -0.14400
F836        F  0.16179488  0.49395926  0.25632007    -0.15800
C837        C  0.55194581  0.04475060  0.04204204     0.14300
C838        C  0.55508006  0.05454729  0.00332486     0.01200
C839        C  0.54542065  0.05136285  0.96412383     0.16200
C840        C  0.53286028  0.03862219  0.96358189     0.25600
C841        C  0.52954963  0.02890361  0.00284465    -0.40700
C842        C  0.53930729  0.03204742  0.04180309     0.32700
C843        C  0.56850690  0.06798248  0.00322214     0.01300
F844        F  0.54810712  0.06069282  0.92654469    -0.13000
F845        F  0.53649798  0.02288726  0.08008111    -0.13500
C846        C  0.57806329  0.07121460  0.96375222     0.16200
C847        C  0.59069650  0.08387460  0.96323884     0.25600
C848        C  0.59399529  0.09372951  0.00192398    -0.40700
C849        C  0.58435460  0.09044785  0.04149660     0.32600
C850        C  0.57179603  0.07767393  0.04222772     0.14300
F851        F  0.57527291  0.06194281  0.92603303    -0.13000
F852        F  0.58681852  0.09973644  0.07882145    -0.13500
F853        F  0.59985628  0.08623383  0.92550390    -0.15800
F854        F  0.56266207  0.07490384  0.08048672    -0.14400
F855        F  0.56123339  0.04742011  0.07973974    -0.14400
F856        F  0.52401963  0.03569768  0.92419598    -0.15800
C857        C  0.50593372  0.20169608  0.23205567     0.14300
C858        C  0.49954634  0.19610717  0.27839858     0.01200
C859        C  0.49271940  0.18161367  0.28598198     0.16200
C860        C  0.49192223  0.17275397  0.24700252     0.25600
C861        C  0.49769604  0.17830796  0.19969047    -0.40700
C862        C  0.50495680  0.19287005  0.19289906     0.32700
C863        C  0.49909666  0.20533852  0.31733482     0.01300
F864        F  0.48651786  0.17606370  0.33073108    -0.13000
F865        F  0.51103394  0.19856053  0.14811743    -0.13500
C866        C  0.48678922  0.20577617  0.32472194     0.16200
C867        C  0.48624538  0.21466681  0.36068159     0.25600
C868        C  0.49806411  0.22332559  0.39019173    -0.40700
C869        C  0.51046277  0.22288071  0.38228288     0.32600
C870        C  0.51095483  0.21399367  0.34598950     0.14300
F871        F  0.47532780  0.19772348  0.29631506    -0.13000
F872        F  0.52208976  0.23088336  0.40997567    -0.13500
F873        F  0.47415210  0.21487588  0.36596724    -0.15800
F874        F  0.52297652  0.21373689  0.33903684    -0.14400
F875        F  0.51263923  0.21568412  0.22414743    -0.14400
F876        F  0.48484338  0.15875329  0.25461038    -0.15800
C877        C  0.48541963  0.17681456  0.71302128     0.14300
C878        C  0.48848435  0.19060929  0.72048136     0.01200
C879        C  0.49176567  0.19634581  0.76877793     0.16200
C880        C  0.49205766  0.18848211  0.80930528     0.25600
C881        C  0.48884905  0.17454884  0.80253311    -0.40700
C882        C  0.48559022  0.16881074  0.75376845     0.32700
C883        C  0.48918764  0.19952688  0.67796129     0.01300
F884        F  0.49493692  0.20973457  0.77650767    -0.13000
F885        F  0.48234255  0.15542661  0.74557771    -0.13500
C886        C  0.47736952  0.20018574  0.66306298     0.16200
C887        C  0.47851650  0.20993373  0.62688932     0.25600
C888        C  0.49158397  0.21926046  0.60519101    -0.40700
C889        C  0.50332756  0.21825176  0.61966217     0.32600
C890        C  0.50211064  0.20851158  0.65575790     0.14300
F891        F  0.46479999  0.19165563  0.68466850    -0.13000
F892        F  0.51606177  0.22670221  0.59908808    -0.13500
F893        F  0.46689508  0.21046742  0.61433044    -0.15800
F894        F  0.51365600  0.20804512  0.67003618    -0.14400
F895        F  0.48236262  0.17116276  0.66628066    -0.14400
F896        F  0.49603448  0.19478491  0.85480756    -0.15800
C897        C  0.49579786  0.04385577  0.96068594     0.14300
C898        C  0.50098456  0.05309962  0.00152217     0.01200
C899        C  0.50675929  0.04984300  0.04290700     0.16200
C900        C  0.50736588  0.03752133  0.04335225     0.25600
C901        C  0.50223022  0.02830822  0.00235539    -0.40700
C902        C  0.49634397  0.03151822  0.96122578     0.32700
C903        C  0.50034204  0.06612369  0.00086562     0.01300
F904        F  0.51199706  0.05871380  0.08249830    -0.13000
F905        F  0.49144665  0.02284023  0.92101541    -0.13500
C906        C  0.49243762  0.06837860  0.03693432     0.16200
C907        C  0.49178828  0.08067158  0.03622438     0.25600
C908        C  0.49910955  0.09097310  0.99949657    -0.40700
C909        C  0.50691105  0.08860635  0.96309185     0.32600
C910        C  0.50751594  0.07628829  0.96382222     0.14300
F911        F  0.48510017  0.05851822  0.07223057    -0.13000
F912        F  0.51433247  0.09839251  0.92771538    -0.13500
F913        F  0.48363739  0.08227420  0.07055254    -0.15800
F914        F  0.51536038  0.07439435  0.92895370    -0.14400
F915        F  0.49008655  0.04674026  0.92047551    -0.14400
F916        F  0.51285652  0.03451495  0.08392765    -0.15800
C917        C  0.29329117  0.79046447  0.67429373     0.14300
C918        C  0.29381716  0.80329437  0.68082891     0.01200
C919        C  0.28481206  0.80617568  0.65256177     0.16200
C920        C  0.27533170  0.79634017  0.61866830     0.25600
C921        C  0.27474868  0.78342597  0.61200638    -0.40700
C922        C  0.28392016  0.78065661  0.64021219     0.32700
C923        C  0.30306777  0.81318480  0.71970059     0.01300
F924        F  0.28526371  0.81859451  0.65758531    -0.13000
F925        F  0.28372745  0.76834962  0.63565048    -0.13500
C926        C  0.31752317  0.81814420  0.71950921     0.16200
C927        C  0.32591884  0.82627468  0.75941872     0.25600
C928        C  0.31993995  0.82946998  0.80019724    -0.40700
C929        C  0.30560930  0.82506125  0.79899550     0.32600
C930        C  0.29726065  0.81697374  0.75926467     0.14300
F931        F  0.32343865  0.81484292  0.68120583    -0.13000
F932        F  0.29960503  0.82844662  0.83673882    -0.13500
F933        F  0.33969858  0.83032561  0.75950144    -0.15800
F934        F  0.28333755  0.81226024  0.76072766    -0.14400
F935        F  0.30157518  0.78722458  0.70218097    -0.14400
F936        F  0.26686354  0.79958865  0.59203863    -0.15800
C937        C  0.28560710  0.80030453  0.33895453     0.14300
C938        C  0.29703484  0.79874626  0.32620318     0.01200
C939        C  0.29872188  0.78834525  0.34978132     0.16200
C940        C  0.28906109  0.77953635  0.38560997     0.25600
C941        C  0.27743738  0.78093563  0.39838338    -0.40700
C942        C  0.27588941  0.79151150  0.37458375     0.32700
C943        C  0.30653903  0.80729944  0.28543978     0.01300
F944        F  0.30973552  0.78669711  0.33787316    -0.13000
F945        F  0.26487790  0.79329692  0.38502773    -0.13500
C946        C  0.31548442  0.82170585  0.29152481     0.16200
C947        C  0.32346077  0.82992475  0.25097552     0.25600
C948        C  0.32245588  0.82383434  0.20358678    -0.40700
C949        C  0.31388864  0.80927055  0.19847568     0.32600
C950        C  0.30601765  0.80111569  0.23900541     0.14300
F951        F  0.31630176  0.82781765  0.33655036    -0.13000
F952        F  0.31311137  0.80284066  0.15422930    -0.13500
F953        F  0.33162855  0.84388735  0.25756649    -0.15800
F954        F  0.29747612  0.78719219  0.23244752    -0.14400
F955        F  0.28362197  0.81009757  0.31559650    -0.14400
F956        F  0.29110447  0.76960146  0.40740539    -0.15800
C957        C  0.43443465  0.92749390  0.96609993     0.14300
C958        C  0.43756649  0.93769570  0.00304236     0.01200
C959        C  0.42764316  0.93520207  0.04048984     0.16200
C960        C  0.41477652  0.92277080  0.04092950     0.25600
C961        C  0.41157757  0.91251007  0.00395076    -0.40700
C962        C  0.42158940  0.91501762  0.96656155     0.32700
C963        C  0.45113315  0.95097478  0.00261058     0.01300
F964        F  0.43031013  0.94499057  0.07609657    -0.13000
F965        F  0.41915170  0.90522993  0.93123218    -0.13500
C966        C  0.45467534  0.96039368  0.96231621     0.16200
C967        C  0.46731002  0.97308876  0.96264227     0.25600
C968        C  0.47670704  0.97651858  0.00300754    -0.40700
C969        C  0.47308064  0.96713647  0.04350504     0.32600
C970        C  0.46044783  0.95446254  0.04318614     0.14300
F971        F  0.44578128  0.95737418  0.92299725    -0.13000
F972        F  0.48172752  0.97032608  0.08366690    -0.13500
F973        F  0.47051821  0.98192855  0.92302404    -0.15800
F974        F  0.45734707  0.94549931  0.08233728    -0.14400
F975        F  0.44395599  0.92949312  0.93013953    -0.14400
F976        F  0.40529104  0.92101855  0.07665945    -0.15800
C977        C  0.49934899  0.81478140  0.27909021     0.14300
C978        C  0.50557181  0.80643551  0.27496008     0.01200
C979        C  0.51306272  0.80728288  0.23125709     0.16200
C980        C  0.51403805  0.81607353  0.19182902     0.25600
C981        C  0.50752355  0.82417634  0.19536450    -0.40700
C982        C  0.50033540  0.82360885  0.23961212     0.32700
C983        C  0.50394454  0.79653139  0.31542551     0.01300
F984        F  0.51904306  0.79922561  0.22605443    -0.13000
F985        F  0.49366191  0.83103971  0.24365785    -0.13500
C986        C  0.49061570  0.78584727  0.32950673     0.16200
C987        C  0.48906633  0.77616800  0.36647115     0.25600
C988        C  0.50087650  0.77694016  0.39005328    -0.40700
C989        C  0.51424203  0.78776828  0.37581530     0.32600
C990        C  0.51572341  0.79744083  0.33898063     0.14300
F991        F  0.47907149  0.78457713  0.30650060    -0.13000
F992        F  0.52596464  0.78911559  0.39752382    -0.13500
F993        F  0.47596419  0.76599606  0.37867030    -0.15800
F994        F  0.52871272  0.80782424  0.32658138    -0.14400
F995        F  0.49219659  0.81426903  0.32120778    -0.14400
F996        F  0.52133349  0.81662415  0.15004839    -0.15800
C997        C  0.50742339  0.81917197  0.71954094     0.14300
C998        C  0.49754265  0.80483767  0.71872837     0.01200
C999        C  0.48737422  0.79916979  0.75663475     0.16200
C1000       C  0.48726287  0.80759183  0.79534376     0.25600
C1001       C  0.49729211  0.82186292  0.79685870    -0.40700
C1002       C  0.50723931  0.82766218  0.75821378     0.32700
C1003       C  0.49783293  0.79564198  0.67899510     0.01300
F1004       F  0.47783294  0.78533550  0.75713610    -0.13000
F1005       F  0.51720871  0.84134670  0.75936057    -0.13500
C1006       C  0.50941020  0.79375696  0.67374888     0.16200
C1007       C  0.50930436  0.78443703  0.63800649     0.25600
C1008       C  0.49756765  0.77679592  0.60681422    -0.40700
C1009       C  0.48602453  0.77882515  0.61213467     0.32600
C1010       C  0.48618534  0.78814749  0.64780043     0.14300
F1011       F  0.52064450  0.80060192  0.70444506    -0.13000
F1012       F  0.47456543  0.77189778  0.58254102    -0.13500
F1013       F  0.52054862  0.78263218  0.63506212    -0.15800
F1014       F  0.47493192  0.78990979  0.65182142    -0.14400
F1015       F  0.51731994  0.82489104  0.68318726    -0.14400
F1016       F  0.47740311  0.80175336  0.83180529    -0.15800
C1017       C  0.50898515  0.93418550  0.96529732     0.14300
C1018       C  0.50378434  0.93785789  0.00712993     0.01200
C1019       C  0.49877791  0.92873504  0.04854556     0.16200
C1020       C  0.49893423  0.91614982  0.04797301     0.25600
C1021       C  0.50406121  0.91240898  0.00580090    -0.40700
C1022       C  0.50908055  0.92161867  0.96450227     0.32700
C1023       C  0.50355111  0.95116318  0.00690999     0.01300
F1024       F  0.49339543  0.93183616  0.08908529    -0.13000
F1025       F  0.51451697  0.91873416  0.92366083    -0.13500
C1026       C  0.49709731  0.95421278  0.96714423     0.16200
C1027       C  0.49748504  0.96701114  0.96515479     0.25600
C1028       C  0.50382344  0.97680775  0.00396416    -0.40700
C1029       C  0.51030138  0.97380314  0.04373752     0.32600
C1030       C  0.51021266  0.96111182  0.04512338     0.14300
F1031       F  0.49027253  0.94470636  0.93035558    -0.13000
F1032       F  0.51650935  0.98307848  0.08169916    -0.13500
F1033       F  0.49174039  0.96988284  0.92503204    -0.15800
F1034       F  0.51683556  0.95864202  0.08336268    -0.14400
F1035       F  0.51428189  0.94295456  0.92534377    -0.14400
F1036       F  0.49363574  0.90746159  0.08810113    -0.15800
C1037       C  0.78835163  0.30406646  0.34937993     0.14300
C1038       C  0.79740283  0.30164230  0.31980254     0.01200
C1039       C  0.79824253  0.28955875  0.32798491     0.16200
C1040       C  0.78979203  0.27978609  0.36418229     0.25600
C1041       C  0.78028482  0.28192126  0.39279543    -0.40700
C1042       C  0.77988471  0.29434584  0.38548745     0.32700
C1043       C  0.80513955  0.31124176  0.27805228     0.01300
F1044       F  0.80683421  0.28693750  0.29944671    -0.13000
F1045       F  0.77128165  0.29716039  0.41309378    -0.13500
C1046       C  0.81978954  0.31825020  0.27616340     0.16200
C1047       C  0.82690450  0.32720301  0.23598697     0.25600
C1048       C  0.81942754  0.32920644  0.19711854    -0.40700
C1049       C  0.80477079  0.32224443  0.19948751     0.32600
C1050       C  0.79771346  0.31331771  0.23941383     0.14300
F1051       F  0.82718163  0.31640439  0.31316528    -0.13000
F1052       F  0.79721718  0.32412672  0.16321377    -0.13500
F1053       F  0.84102453  0.33342267  0.23412745    -0.15800
F1054       F  0.78354505  0.30641599  0.23978371    -0.14400
F1055       F  0.78762810  0.31585908  0.34286983    -0.14400
F1056       F  0.79068139  0.26807177  0.37002036    -0.15800
C1057       C  0.79092078  0.29836268  0.65850055     0.14300
C1058       C  0.80020287  0.29486845  0.68113792     0.01200
C1059       C  0.80021874  0.28274219  0.66626776     0.16200
C1060       C  0.79095597  0.27410686  0.62923874     0.25600
C1061       C  0.78141933  0.27744110  0.60677755    -0.40700
C1062       C  0.78160396  0.28975647  0.62171637     0.32700
C1063       C  0.80913042  0.30342126  0.72280353     0.01300
F1064       F  0.80916762  0.27924188  0.68793145    -0.13000
F1065       F  0.77279570  0.29355819  0.60082296    -0.13500
C1066       C  0.80594549  0.29830284  0.77206081     0.16200
C1067       C  0.81341507  0.30678613  0.81243482     0.25600
C1068       C  0.82417201  0.32062970  0.80420383    -0.40700
C1069       C  0.82768715  0.32555124  0.75448795     0.32600
C1070       C  0.82016994  0.31699579  0.71408762     0.14300
F1071       F  0.79522442  0.28522246  0.78113271    -0.13000
F1072       F  0.83789992  0.33883144  0.74495544    -0.13500
F1073       F  0.81007019  0.30138992  0.85956197    -0.15800
F1074       F  0.82345000  0.32203525  0.66647089    -0.14400
F1075       F  0.79062585  0.30995428  0.67313250    -0.14400
F1076       F  0.79118447  0.26237428  0.61623757    -0.15800
C1077       C  0.68645500  0.18600942  0.70831521     0.14300
C1078       C  0.70105027  0.19418156  0.71210821     0.01200
C1079       C  0.70764389  0.19387649  0.75680232     0.16200
C1080       C  0.69977811  0.18589681  0.79766154     0.25600
C1081       C  0.68510370  0.17806940  0.79475238    -0.40700
C1082       C  0.67853636  0.17793806  0.74921826     0.32700
C1083       C  0.70947533  0.20363805  0.67083197     0.01300
F1084       F  0.72171721  0.20178989  0.76159024    -0.13000
F1085       F  0.66442827  0.17059988  0.74505018    -0.13500
C1086       C  0.70765199  0.21484856  0.65681455     0.10800
C1087       C  0.71654072  0.22466187  0.62156755     0.25600
C1088       C  0.72751613  0.22348041  0.59957941    -0.40700
C1089       C  0.72902728  0.21194713  0.61285402     0.32600
C1090       C  0.72009667  0.20216086  0.64810165     0.14300
F1091       F  0.69756671  0.21660237  0.67877006    -0.13000
F1092       F  0.73922733  0.21013615  0.59227821    -0.13500
F1093       F  0.71447433  0.23543302  0.60980156    -0.15800
F1094       F  0.72188080  0.19124509  0.66042350    -0.14400
F1095       F  0.67986638  0.18604244  0.66526375    -0.14400
F1096       F  0.70657351  0.18591649  0.84023255    -0.15800
C1097       C  0.69470833  0.20709932  0.23619178     0.14300
C1098       C  0.69701280  0.20075910  0.27785870     0.01200
C1099       C  0.69092176  0.18619290  0.27957376     0.16200
C1100       C  0.68281667  0.17804641  0.23928521     0.25600
C1101       C  0.68091719  0.18444449  0.19660987    -0.40700
C1102       C  0.68679790  0.19903060  0.19571614     0.32700
C1103       C  0.70680454  0.20955048  0.31716646     0.01300
F1104       F  0.69314123  0.17993909  0.31967809    -0.13000
F1105       F  0.68496659  0.20551416  0.15547499    -0.13500
C1106       C  0.70303016  0.21667665  0.35146075     0.16200
C1107       C  0.71274446  0.22576880  0.38645306     0.25600
C1108       C  0.72643001  0.22791298  0.38733104    -0.40700
C1109       C  0.73013483  0.22075009  0.35252835     0.32600
C1110       C  0.72037286  0.21162341  0.31786815     0.14300
F1111       F  0.68992382  0.21478603  0.35103773    -0.13000
F1112       F  0.74330487  0.22282965  0.35108380    -0.13500
F1113       F  0.70865596  0.23224774  0.41998056    -0.15800
F1114       F  0.72425644  0.20506728  0.28391823    -0.14400
F1115       F  0.70060851  0.22118582  0.23393733    -0.14400
F1116       F  0.67752131  0.16403475  0.24078148    -0.15800
loop_ 
_geom_bond_atom_site_label_1 
_geom_bond_atom_site_label_2 
_geom_bond_distance 
_geom_bond_site_symmetry_2 
_ccdc_geom_bond_type 
O1           Cu9   2.000       .  S
O1           C11   1.277       .  A
O2           Cu9   2.001       .  S
O2           C12   1.277       .  A
O3           Cu9   2.006       .  S
O3           C13   1.278       .  A
O4           Cu9   2.005       .  S
O4           C14   1.278       .  A
O5          Cu10   2.010       .  S
O5           C14   1.278       .  A
O6          Cu10   2.012       .  S
O6           C13   1.279       .  A
O7          Cu10   2.004       .  S
O7           C12   1.278       .  A
O8          Cu10   2.007       .  S
O8           C11   1.278       .  A
Cu9         Cu10   2.367       .  S
C11        C1061   1.484       .  S
C12        C1108   1.479       .  S
C13        C1088   1.490       .  S
C14        C1041   1.487       .  S
N15          N16   1.320       .  A
N15          C19   1.351       .  A
N15         Cu23   2.087       .  S
N16          C17   1.338       .  A
N16         Cu22   2.043       .  S
C17          C18   1.377       .  A
C17          H20   1.082       .  S
C18        C1001   1.475       .  S
C18          C19   1.390       .  A
C19          H21   1.082       .  S
Cu22         N25   2.043   1_556  S
Cu23         N33   2.090       .  S
Cu24         N26   2.083       .  S
Cu24         N32   2.085       .  S
N25          N26   1.320       .  A
N25          C29   1.339       .  A
N26          C27   1.348       .  A
C27          C28   1.390       .  A
C27          H30   1.082       .  S
C28         C981   1.476       .  S
C28          C29   1.379       .  A
C29          H31   1.082       .  S
N32          N33   1.325   1_554  A
N32          C36   1.347       .  A
N33          C34   1.345       .  A
C34          C35   1.387   1_556  A
C34          H37   1.081       .  S
C35        C1021   1.489       .  S
C35          C36   1.387       .  A
C36          H38   1.081       .  S
N39          N40   1.320       .  A
N39          C43   1.350       .  A
N39         Cu47   2.083       .  S
N40          C41   1.339       .  A
N40         Cu46   2.055   1_556  S
C41          C42   1.381       .  A
C41          H44   1.082       .  S
C42         C928   1.479       .  S
C42          C43   1.389       .  A
C43          H45   1.082       .  S
Cu46         N49   2.055       .  S
Cu47         N57   2.086       .  S
Cu48         N50   2.088       .  S
Cu48         N56   2.090       .  S
N49          N50   1.320       .  A
N49          C53   1.340       .  A
N50          C51   1.350       .  A
C51          C52   1.391       .  A
C51          H54   1.082       .  S
C52         C948   1.485       .  S
C52          C53   1.383       .  A
C53          H55   1.082       .  S
N56          N57   1.325   1_554  A
N56          C60   1.347       .  A
N57          C58   1.346       .  A
C58          C59   1.386   1_556  A
C58          H61   1.081       .  S
C59         C961   1.489       .  S
C59          C60   1.388       .  A
C60          H62   1.081       .  S
N63          N64   1.319       .  A
N63          C67   1.350       .  A
N63         Cu71   2.085       .  S
N64          C65   1.339       .  A
N64         Cu70   2.056   1_556  S
C65          C66   1.384       .  A
C65          H68   1.081       .  S
C66         C881   1.487       .  S
C66          C67   1.393       .  A
C67          H69   1.082       .  S
Cu70         N73   2.057       .  S
Cu71         N81   2.087       .  S
Cu72         N74   2.077       .  S
Cu72         N80   2.079       .  S
N73          N74   1.320       .  A
N73          C77   1.340       .  A
N74          C75   1.349       .  A
C75          C76   1.388       .  A
C75          H78   1.082       .  S
C76         C861   1.477       .  S
C76          C77   1.381       .  A
C77          H79   1.082       .  S
N80          N81   1.325   1_554  A
N80          C84   1.344       .  A
N81          C82   1.346       .  A
C82          C83   1.385       .  A
C82          H85   1.081       .  S
C83         C908   1.482       .  S
C83          C84   1.384   1_556  A
C84          H86   1.081       .  S
N87          N88   1.320       .  A
N87          C91   1.348       .  A
N87         Cu95   2.078       .  S
N88          C89   1.339       .  A
N88         Cu94   2.048   1_554  S
C89          C90   1.380       .  A
C89          H92   1.082       .  S
C90        C1101   1.475       .  S
C90          C91   1.387       .  A
C91          H93   1.082       .  S
Cu94         N97   2.048       .  S
Cu95        N105   2.080       .  S
Cu96         N98   2.091       .  S
Cu96        N104   2.093       .  S
N97          N98   1.320       .  A
N97         C101   1.339       .  A
N98          C99   1.350       .  A
C99         C100   1.392       .  A
C99         H102   1.082       .  S
C100       C1081   1.483       .  S
C100        C101   1.381       .  A
C101        H103   1.082       .  S
N104        N105   1.324   1_556  A
N104        C108   1.346       .  A
N105        C106   1.346       .  A
C106        C107   1.387       .  A
C106        H109   1.081       .  S
C107        C848   1.492       .  S
C107        C108   1.389   1_554  A
C108        H110   1.081       .  S
C111        C968   1.492       .  S
C111        C112   1.418       .  A
C111        C116   1.403   1_565  A
C112       C1028   1.487       .  S
C112        C113   1.408   1_565  A
C113        C114   1.407       .  A
C113        H118   1.084       .  S
C114        C841   1.495       .  S
C114        C115   1.417       .  A
C115        C901   1.482       .  S
C115        C116   1.405       .  A
C116        H117   1.085       .  S
O119       Cu127   2.004       .  S
O119        C129   1.277       .  A
O120       Cu127   2.007       .  S
O120        C130   1.278       .  A
O121       Cu127   2.013       .  S
O121        C131   1.279       .  A
O122       Cu127   2.017       .  S
O122        C132   1.279       .  A
O123       Cu128   2.001       .  S
O123        C132   1.277       .  A
O124       Cu128   1.996       .  S
O124        C131   1.276       .  A
O125       Cu128   1.999       .  S
O125        C130   1.277       .  A
O126       Cu128   1.999       .  S
O126        C129   1.277       .  A
Cu127      Cu128   2.366       .  S
C129        C768   1.483       .  S
C130        C808   1.483       .  S
C131        C828   1.483       .  S
C132        C781   1.490       .  S
O133       Cu141   2.015       .  S
O133        C143   1.279       .  A
O134       Cu141   2.017       .  S
O134        C144   1.280       .  A
O135       Cu141   1.992       .  S
O135        C145   1.276       .  A
O136       Cu141   1.994       .  S
O136        C146   1.276       .  A
O137       Cu142   2.019       .  S
O137        C146   1.280       .  A
O138       Cu142   2.020       .  S
O138        C145   1.280       .  A
O139       Cu142   2.006       .  S
O139        C144   1.277       .  A
O140       Cu142   2.003       .  S
O140        C143   1.277       .  A
Cu141      Cu142   2.364       .  S
C143        C941   1.490       .  S
C144        C741   1.490       .  S
C145        C721   1.488       .  S
C146        C921   1.487       .  S
N147        N148   1.320       .  A
N147        C151   1.348       .  A
N147       Cu155   2.076       .  S
N148        C149   1.338       .  A
N148       Cu154   2.047       .  S
C149        C150   1.379       .  A
C149        H152   1.082       .  S
C150        C821   1.475       .  S
C150        C151   1.388       .  A
C151        H153   1.082       .  S
Cu154       N157   2.048   1_554  S
Cu155       N165   2.078       .  S
Cu156       N158   2.084       .  S
Cu156       N164   2.086       .  S
N157        N158   1.320       .  A
N157        C161   1.339       .  A
N158        C159   1.349       .  A
C159        C160   1.389       .  A
C159        H162   1.082       .  S
C160        C801   1.478       .  S
C160        C161   1.381       .  A
C161        H163   1.082       .  S
N164        N165   1.324   1_556  A
N164        C168   1.346       .  A
N165        C166   1.345       .  A
C166        C167   1.385       .  A
C166        H169   1.082       .  S
C167        C708   1.483       .  S
C167        C168   1.385   1_554  A
C168        H170   1.082       .  S
N171        N172   1.320       .  A
N171        C175   1.351       .  A
N171       Cu179   2.092       .  S
N172        C173   1.338       .  A
N172       Cu178   2.049       .  S
C173        C174   1.380       .  A
C173        H176   1.082       .  S
C174        C728   1.483       .  S
C174        C175   1.392       .  A
C175        H177   1.082       .  S
Cu178       N181   2.050   1_554  S
Cu179       N189   2.095       .  S
Cu180       N182   2.087       .  S
Cu180       N188   2.089       .  S
N181        N182   1.319       .  A
N181        C185   1.340       .  A
N182        C183   1.350       .  A
C183        C184   1.390       .  A
C183        H186   1.082       .  S
C184        C748   1.481       .  S
C184        C185   1.381       .  A
C185        H187   1.082       .  S
N188        N189   1.326   1_556  A
N188        C192   1.346       .  A
N189        C190   1.348       .  A
C190        C191   1.387       .  A
C190        H193   1.082       .  S
C191        C681   1.487       .  S
C191        C192   1.385   1_554  A
C192        H194   1.082       .  S
N195        N196   1.319       .  A
N195        C199   1.347       .  A
N195       Cu203   2.072       .  S
N196        C197   1.338       .  A
N196       Cu202   2.046   1_554  S
C197        C198   1.380       .  A
C197        H200   1.082       .  S
C198       C1048   1.477       .  S
C198        C199   1.388       .  A
C199        H201   1.082       .  S
Cu202       N205   2.046       .  S
Cu203       N213   2.075       .  S
Cu204       N206   2.078       .  S
Cu204       N212   2.080       .  S
N205        N206   1.319       .  A
N205        C209   1.338       .  A
N206        C207   1.347       .  A
C207        C208   1.390       .  A
C207        H210   1.081       .  S
C208       C1068   1.481       .  S
C208        C209   1.382       .  A
C209        H211   1.081       .  S
N212        N213   1.324   1_556  A
N212        C216   1.345       .  A
N213        C214   1.343       .  A
C214        C215   1.385   1_554  A
C214        H217   1.081       .  S
C215        C661   1.483       .  S
C215        C216   1.386       .  A
C216        H218   1.081       .  S
N219        N220   1.320       .  A
N219        C223   1.351       .  A
N219       Cu227   2.095       .  S
N220        C221   1.339       .  A
N220       Cu226   2.054   1_554  S
C221        C222   1.381       .  A
C221        H224   1.082       .  S
C222        C628   1.485       .  S
C222        C223   1.393       .  A
C223        H225   1.082       .  S
Cu226       N229   2.054       .  S
Cu227       N237   2.098       .  S
Cu228       N230   2.090       .  S
Cu228       N236   2.092       .  S
N229        N230   1.320       .  A
N229        C233   1.340       .  A
N230        C231   1.352       .  A
C231        C232   1.392       .  A
C231        H234   1.082       .  S
C232        C601   1.483       .  S
C232        C233   1.381       .  A
C233        H235   1.082       .  S
N236        N237   1.326   1_556  A
N236        C240   1.346       .  A
N237        C238   1.349       .  A
C238        C239   1.388   1_554  A
C238        H241   1.082       .  S
C239        C641   1.488       .  S
C239        C240   1.385       .  A
C240        H242   1.082       .  S
C243        C701   1.480       .  S
C243        C244   1.412       .  A
C243        C248   1.400       .  A
C244        C688   1.481       .  S
C244        C245   1.406       .  A
C245        C246   1.406   1_455  A
C245        H250   1.084       .  S
C246        C648   1.490       .  S
C246        C247   1.417       .  A
C247        C668   1.481       .  S
C247        C248   1.402   1_655  A
C248        H249   1.085   1_556  S
O251       Cu259   2.009       .  S
O251        C261   1.279       .  A
O252       Cu259   2.010       .  S
O252        C262   1.278       .  A
O253       Cu259   2.005       .  S
O253        C263   1.278       .  A
O254       Cu259   2.011       .  S
O254        C264   1.278       .  A
O255       Cu260   2.012       .  S
O255        C264   1.279       .  A
O256       Cu260   2.011       .  S
O256        C263   1.278       .  A
O257       Cu260   2.008       .  S
O257        C262   1.278       .  A
O258       Cu260   2.009       .  S
O258        C261   1.278       .  A
Cu259      Cu260   2.365       .  S
C261        C868   1.488       .  S
C262        C568   1.489       .  S
C263        C581   1.487       .  S
C264        C888   1.489       .  S
O265       Cu273   2.003       .  S
O265        C275   1.277       .  A
O266       Cu273   2.007       .  S
O266        C276   1.278       .  A
O267       Cu273   2.018       .  S
O267        C277   1.279       .  A
O268       Cu273   2.012       .  S
O268        C278   1.279       .  A
O269       Cu274   2.008       .  S
O269        C278   1.278       .  A
O270       Cu274   2.011       .  S
O270        C277   1.278       .  A
O271       Cu274   2.015       .  S
O271        C276   1.279       .  A
O272       Cu274   2.015       .  S
O272        C275   1.279       .  A
Cu273      Cu274   2.366       .  S
C275        C548   1.486       .  S
C276        C621   1.490       .  S
C277        C608   1.491       .  S
C278        C521   1.485       .  S
O279       Cu287   2.003       .  S
O279        C289   1.277       .  A
O280       Cu287   2.006       .  S
O280        C290   1.278       .  A
O281       Cu287   2.013       .  S
O281        C291   1.278       .  A
O282       Cu287   2.011       .  S
O282        C292   1.278       .  A
O283       Cu288   2.006       .  S
O283        C292   1.278       .  A
O284       Cu288   2.007       .  S
O284        C291   1.278       .  A
O285       Cu288   2.010       .  S
O285        C290   1.278       .  A
O286       Cu288   2.002       .  S
O286        C289   1.277       .  A
Cu287      Cu288   2.367       .  S
C289        C488   1.482       .  S
C290        C988   1.489       .  S
C291       C1008   1.487       .  S
C292        C501   1.481       .  S
N293        N294   1.320       .  A
N293        C297   1.350       .  A
N293       Cu301   2.090       .  S
N294        C295   1.339       .  A
N294       Cu300   2.049   1_556  S
C295        C296   1.381       .  A
C295        H298   1.082       .  S
C296        C788   1.483       .  S
C296        C297   1.391       .  A
C297        H299   1.082       .  S
Cu300       N303   2.049       .  S
Cu301       N311   2.092       .  S
Cu302       N304   2.070       .  S
Cu302       N310   2.073       .  S
N303        N304   1.319       .  A
N303        C307   1.338       .  A
N304        C305   1.347       .  A
C305        C306   1.388       .  A
C305        H308   1.082       .  S
C306        C761   1.476       .  S
C306        C307   1.381       .  A
C307        H309   1.082       .  S
N310        N311   1.324   1_554  A
N310        C314   1.344       .  A
N311        C312   1.346       .  A
C312        C313   1.388   1_556  A
C312        H315   1.081       .  S
C313        C461   1.485       .  S
C313        C314   1.384       .  A
C314        H316   1.081       .  S
N317        N318   1.319       .  A
N317        C321   1.350       .  A
N317       Cu325   2.087       .  S
N318        C319   1.339       .  A
N318       Cu324   2.048       .  S
C319        C320   1.382       .  A
C319        H322   1.082       .  S
C320        C508   1.484       .  S
C320        C321   1.392       .  A
C321        H323   1.082       .  S
Cu324       N327   2.048   1_554  S
Cu325       N335   2.090       .  S
Cu326       N328   2.085       .  S
Cu326       N334   2.087       .  S
N327        N328   1.320       .  A
N327        C331   1.339       .  A
N328        C329   1.348       .  A
C329        C330   1.390       .  A
C329        H332   1.082       .  S
C330        C481   1.480       .  S
C330        C331   1.381       .  A
C331        H333   1.082       .  S
N334        N335   1.324   1_556  A
N334        C338   1.348       .  A
N335        C336   1.344       .  A
C336        C337   1.387   1_554  A
C336        H339   1.081       .  S
C337        C441   1.491       .  S
C337        C338   1.388       .  A
C338        H340   1.081       .  S
N341        N342   1.319       .  A
N341        C345   1.348       .  A
N341       Cu349   2.082       .  S
N342        C343   1.339       .  A
N342       Cu348   2.046   1_554  S
C343        C344   1.382       .  A
C343        H346   1.081       .  S
C344        C588   1.482       .  S
C344        C345   1.391       .  A
C345        H347   1.081       .  S
Cu348       N351   2.046       .  S
Cu349       N359   2.085       .  S
Cu350       N352   2.091       .  S
Cu350       N358   2.093       .  S
N351        N352   1.320       .  A
N351        C355   1.338       .  A
N352        C353   1.351       .  A
C353        C354   1.392       .  A
C353        H356   1.082       .  S
C354        C561   1.482       .  S
C354        C355   1.380       .  A
C355        H357   1.082       .  S
N358        N359   1.325   1_556  A
N358        C362   1.346       .  A
N359        C360   1.346       .  A
C360        C361   1.386       .  A
C360        H363   1.082       .  S
C361        C421   1.488       .  S
C361        C362   1.387   1_554  A
C362        H364   1.082       .  S
N365        N366   1.321       .  A
N365        C369   1.349       .  A
N365       Cu373   2.081       .  S
N366        C367   1.339       .  A
N366       Cu372   2.054       .  S
C367        C368   1.380       .  A
C367        H370   1.082       .  S
C368        C541   1.476       .  S
C368        C369   1.387       .  A
C369        H371   1.082       .  S
Cu372       N375   2.054   1_556  S
Cu373       N383   2.082       .  S
Cu374       N376   2.072       .  S
Cu374       N382   2.074       .  S
N375        N376   1.319       .  A
N375        C379   1.339       .  A
N376        C377   1.348       .  A
C377        C378   1.388       .  A
C377        H380   1.082       .  S
C378        C528   1.478       .  S
C378        C379   1.382       .  A
C379        H381   1.082       .  S
N382        N383   1.325   1_554  A
N382        C386   1.343       .  A
N383        C384   1.346       .  A
C384        C385   1.381       .  A
C384        H387   1.082       .  S
C385        C401   1.468       .  S
C385        C386   1.378   1_556  A
C386        H388   1.082       .  S
C389        C468   1.481       .  S
C389        C390   1.416       .  A
C389        C394   1.403       .  A
C390        C448   1.488       .  S
C390        C391   1.404       .  A
C391        C392   1.405       .  A
C391        H396   1.084       .  S
C392        C408   1.479       .  S
C392        C393   1.414       .  A
C393        C428   1.486       .  S
C393        C394   1.401       .  A
C394        H395   1.085       .  S
C397        C398   1.406   1_554  A
C397        C402   1.397       .  A
C397        F415   1.358       .  S
C398        C403   1.480   1_556  S
C398        C399   1.407       .  A
C399        C400   1.399       .  A
C399        F404   1.358       .  S
C400        C401   1.403       .  A
C400        F416   1.358       .  S
C401        C402   1.403   1_556  A
C402        F405   1.358       .  S
C403        C406   1.406   1_554  A
C403        C410   1.407       .  A
C406        C407   1.397       .  A
C406        F411   1.358       .  S
C407        C408   1.404   1_556  A
C407        F413   1.358       .  S
C408        C409   1.404       .  A
C409        C410   1.399       .  A
C409        F412   1.358       .  S
C410        F414   1.358       .  S
C417        C418   1.405       .  A
C417        C422   1.400       .  A
C417        F435   1.358       .  S
C418        C423   1.485       .  S
C418        C419   1.406   1_554  A
C419        C420   1.401       .  A
C419        F424   1.358       .  S
C420        C421   1.410   1_556  A
C420        F436   1.357       .  S
C421        C422   1.410       .  A
C422        F425   1.357       .  S
C423        C426   1.407       .  A
C423        C430   1.407   1_554  A
C426        C427   1.399       .  A
C426        F431   1.358       .  S
C427        C428   1.406       .  A
C427        F433   1.357       .  S
C428        C429   1.406   1_554  A
C429        C430   1.400       .  A
C429        F432   1.358       .  S
C430        F434   1.358       .  S
C437        C438   1.403       .  A
C437        C442   1.398       .  A
C437        F455   1.358       .  S
C438        C443   1.484       .  S
C438        C439   1.406   1_554  A
C439        C440   1.403       .  A
C439        F444   1.358       .  S
C440        C441   1.412       .  A
C440        F456   1.357       .  S
C441        C442   1.410   1_556  A
C442        F445   1.357       .  S
C443        C446   1.406       .  A
C443        C450   1.406   1_554  A
C446        C447   1.399       .  A
C446        F451   1.358       .  S
C447        C448   1.406       .  A
C447        F453   1.357       .  S
C448        C449   1.407   1_554  A
C449        C450   1.402       .  A
C449        F452   1.358       .  S
C450        F454   1.358       .  S
C457        C458   1.405       .  A
C457        C462   1.400       .  A
C457        F475   1.358       .  S
C458        C463   1.482       .  S
C458        C459   1.405   1_554  A
C459        C460   1.397       .  A
C459        F464   1.358       .  S
C460        C461   1.408   1_556  A
C460        F476   1.357       .  S
C461        C462   1.411       .  A
C462        F465   1.357       .  S
C463        C466   1.407       .  A
C463        C470   1.407   1_554  A
C466        C467   1.399       .  A
C466        F471   1.358       .  S
C467        C468   1.405       .  A
C467        F473   1.358       .  S
C468        C469   1.404   1_554  A
C469        C470   1.397       .  A
C469        F472   1.358       .  S
C470        F474   1.358       .  S
C477        C478   1.404       .  A
C477        C482   1.400       .  A
C477        F495   1.358       .  S
C478        C483   1.475       .  S
C478        C479   1.402       .  A
C479        C480   1.395       .  A
C479        F484   1.358       .  S
C480        C481   1.409       .  A
C480        F496   1.357       .  S
C481        C482   1.408       .  A
C482        F485   1.357       .  S
C483        C486   1.403       .  A
C483        C490   1.402       .  A
C486        C487   1.397       .  A
C486        F491   1.358       .  S
C487        C488   1.411       .  A
C487        F493   1.358       .  S
C488        C489   1.410       .  A
C489        C490   1.397       .  A
C489        F492   1.358       .  S
C490        F494   1.358       .  S
C497        C498   1.404       .  A
C497        C502   1.400       .  A
C497        F515   1.358       .  S
C498        C503   1.478       .  S
C498        C499   1.403       .  A
C499        C500   1.398       .  A
C499        F504   1.358       .  S
C500        C501   1.409       .  A
C500        F516   1.358       .  S
C501        C502   1.408       .  A
C502        F505   1.358       .  S
C503        C506   1.405       .  A
C503        C510   1.401       .  A
C506        C507   1.403       .  A
C506        F511   1.358       .  S
C507        C508   1.409       .  A
C507        F513   1.357       .  S
C508        C509   1.410       .  A
C509        C510   1.395       .  A
C509        F512   1.357       .  S
C510        F514   1.358       .  S
C517        C518   1.402       .  A
C517        C522   1.398       .  A
C517        F535   1.358       .  S
C518        C523   1.475       .  S
C518        C519   1.402       .  A
C519        C520   1.399       .  A
C519        F524   1.358       .  S
C520        C521   1.411       .  A
C520        F536   1.358       .  S
C521        C522   1.410       .  A
C522        F525   1.358       .  S
C523        C526   1.401       .  A
C523        C530   1.405       .  A
C526        C527   1.394       .  A
C526        F531   1.358       .  S
C527        C528   1.408       .  A
C527        F533   1.358       .  S
C528        C529   1.408       .  A
C529        C530   1.402       .  A
C529        F532   1.357       .  S
C530        F534   1.358       .  S
C537        C538   1.406       .  A
C537        C542   1.402       .  A
C537        F555   1.358       .  S
C538        C543   1.477       .  S
C538        C539   1.402       .  A
C539        C540   1.395       .  A
C539        F544   1.358       .  S
C540        C541   1.407       .  A
C540        F556   1.358       .  S
C541        C542   1.406       .  A
C542        F545   1.358       .  S
C543        C546   1.403       .  A
C543        C550   1.402       .  A
C546        C547   1.399       .  A
C546        F551   1.358       .  S
C547        C548   1.410       .  A
C547        F553   1.358       .  S
C548        C549   1.412       .  A
C549        C550   1.399       .  A
C549        F552   1.358       .  S
C550        F554   1.358       .  S
C557        C558   1.406       .  A
C557        C562   1.403       .  A
C557        F575   1.358       .  S
C558        C563   1.479       .  S
C558        C559   1.402       .  A
C559        C560   1.395       .  A
C559        F564   1.358       .  S
C560        C561   1.409       .  A
C560        F576   1.358       .  S
C561        C562   1.407       .  A
C562        F565   1.357       .  S
C563        C566   1.403       .  A
C563        C570   1.403       .  A
C566        C567   1.399       .  A
C566        F571   1.358       .  S
C567        C568   1.412       .  A
C567        F573   1.358       .  S
C568        C569   1.412       .  A
C569        C570   1.399       .  A
C569        F572   1.358       .  S
C570        F574   1.358       .  S
C577        C578   1.405       .  A
C577        C582   1.400       .  A
C577        F595   1.358       .  S
C578        C583   1.483       .  S
C578        C579   1.405       .  A
C579        C580   1.397       .  A
C579        F584   1.358       .  S
C580        C581   1.411       .  A
C580        F596   1.358       .  S
C581        C582   1.411       .  A
C582        F585   1.358       .  S
C583        C586   1.405       .  A
C583        C590   1.407       .  A
C586        C587   1.396       .  A
C586        F591   1.358       .  S
C587        C588   1.410       .  A
C587        F593   1.358       .  S
C588        C589   1.407       .  A
C589        C590   1.400       .  A
C589        F592   1.357       .  S
C590        F594   1.358       .  S
C597        C598   1.405       .  A
C597        C602   1.397       .  A
C597        F615   1.358       .  S
C598        C603   1.487       .  S
C598        C599   1.408       .  A
C599        C600   1.404       .  A
C599        F604   1.358       .  S
C600        C601   1.407       .  A
C600        F616   1.357       .  S
C601        C602   1.408       .  A
C602        F605   1.358       .  S
C603        C606   1.405       .  A
C603        C610   1.406       .  A
C606        C607   1.400       .  A
C606        F611   1.358       .  S
C607        C608   1.412       .  A
C607        F613   1.358       .  S
C608        C609   1.411       .  A
C609        C610   1.402       .  A
C609        F612   1.358       .  S
C610        F614   1.358       .  S
C617        C618   1.403       .  A
C617        C622   1.399       .  A
C617        F635   1.358       .  S
C618        C623   1.482       .  S
C618        C619   1.404       .  A
C619        C620   1.400       .  A
C619        F624   1.358       .  S
C620        C621   1.412       .  A
C620        F636   1.358       .  S
C621        C622   1.413       .  A
C622        F625   1.358       .  S
C623        C626   1.402       .  A
C623        C630   1.406       .  A
C626        C627   1.397       .  A
C626        F631   1.358       .  S
C627        C628   1.410       .  A
C627        F633   1.357       .  S
C628        C629   1.408       .  A
C629        C630   1.403       .  A
C629        F632   1.357       .  S
C630        F634   1.358       .  S
C637        C638   1.405   1_554  A
C637        C642   1.402       .  A
C637        F655   1.358       .  S
C638        C643   1.486       .  S
C638        C639   1.405       .  A
C639        C640   1.402       .  A
C639        F644   1.358       .  S
C640        C641   1.409       .  A
C640        F656   1.357       .  S
C641        C642   1.409   1_556  A
C642        F645   1.357       .  S
C643        C646   1.405   1_556  A
C643        C650   1.407       .  A
C646        C647   1.400       .  A
C646        F651   1.358       .  S
C647        C648   1.407   1_554  A
C647        F653   1.357       .  S
C648        C649   1.407       .  A
C649        C650   1.403       .  A
C649        F652   1.358       .  S
C650        F654   1.358       .  S
C657        C658   1.402   1_554  A
C657        C662   1.396       .  A
C657        F675   1.358       .  S
C658        C663   1.475       .  S
C658        C659   1.403       .  A
C659        C660   1.400       .  A
C659        F664   1.358       .  S
C660        C661   1.410       .  A
C660        F676   1.357       .  S
C661        C662   1.409   1_556  A
C662        F665   1.357       .  S
C663        C666   1.404   1_556  A
C663        C670   1.403       .  A
C666        C667   1.399       .  A
C666        F671   1.358       .  S
C667        C668   1.406   1_554  A
C667        F673   1.358       .  S
C668        C669   1.405       .  A
C669        C670   1.397       .  A
C669        F672   1.357       .  S
C670        F674   1.358       .  S
C677        C678   1.406   1_554  A
C677        C682   1.401       .  A
C677        F695   1.358       .  S
C678        C683   1.487       .  S
C678        C679   1.406       .  A
C679        C680   1.402       .  A
C679        F684   1.358       .  S
C680        C681   1.409   1_556  A
C680        F696   1.358       .  S
C681        C682   1.408       .  A
C682        F685   1.357       .  S
C683        C686   1.407   1_556  A
C683        C690   1.408       .  A
C686        C687   1.400       .  A
C686        F691   1.358       .  S
C687        C688   1.403   1_554  A
C687        F693   1.358       .  S
C688        C689   1.405       .  A
C689        C690   1.402       .  A
C689        F692   1.357       .  S
C690        F694   1.358       .  S
C697        C698   1.409       .  A
C697        C702   1.400       .  A
C697        F715   1.358       .  S
C698        C703   1.489       .  S
C698        C699   1.409   1_554  A
C699        C700   1.400       .  A
C699        F704   1.358       .  S
C700        C701   1.403       .  A
C700        F716   1.357       .  S
C701        C702   1.403   1_556  A
C702        F705   1.358       .  S
C703        C706   1.408   1_554  A
C703        C710   1.407       .  A
C706        C707   1.401       .  A
C706        F711   1.358       .  S
C707        C708   1.407   1_556  A
C707        F713   1.358       .  S
C708        C709   1.407       .  A
C709        C710   1.399       .  A
C709        F712   1.357       .  S
C710        F714   1.358       .  S
C717        C718   1.402       .  A
C717        C722   1.396       .  A
C717        F735   1.358       .  S
C718        C723   1.481       .  S
C718        C719   1.405       .  A
C719        C720   1.400       .  A
C719        F724   1.358       .  S
C720        C721   1.411       .  A
C720        F736   1.358       .  S
C721        C722   1.413       .  A
C722        F725   1.358       .  S
C723        C726   1.406       .  A
C723        C730   1.403       .  A
C726        C727   1.401       .  A
C726        F731   1.358       .  S
C727        C728   1.408       .  A
C727        F733   1.357       .  S
C728        C729   1.410       .  A
C729        C730   1.396       .  A
C729        F732   1.358       .  S
C730        F734   1.358       .  S
C737        C738   1.406       .  A
C737        C742   1.399       .  A
C737        F755   1.358       .  S
C738        C743   1.487       .  S
C738        C739   1.406       .  A
C739        C740   1.400       .  A
C739        F744   1.358       .  S
C740        C741   1.412       .  A
C740        F756   1.358       .  S
C741        C742   1.410       .  A
C742        F745   1.358       .  S
C743        C746   1.406       .  A
C743        C750   1.409       .  A
C746        C747   1.397       .  A
C746        F751   1.358       .  S
C747        C748   1.408       .  A
C747        F753   1.358       .  S
C748        C749   1.406       .  A
C749        C750   1.402       .  A
C749        F752   1.357       .  S
C750        F754   1.358       .  S
C757        C758   1.405       .  A
C757        C762   1.399       .  A
C757        F775   1.358       .  S
C758        C763   1.474       .  S
C758        C759   1.402       .  A
C759        C760   1.393       .  A
C759        F764   1.358       .  S
C760        C761   1.408       .  A
C760        F776   1.358       .  S
C761        C762   1.407       .  A
C762        F765   1.357       .  S
C763        C766   1.402       .  A
C763        C770   1.403       .  A
C766        C767   1.395       .  A
C766        F771   1.358       .  S
C767        C768   1.411       .  A
C767        F773   1.358       .  S
C768        C769   1.411       .  A
C769        C770   1.397       .  A
C769        F772   1.358       .  S
C770        F774   1.358       .  S
C777        C778   1.404       .  A
C777        C782   1.401       .  A
C777        F795   1.358       .  S
C778        C783   1.479       .  S
C778        C779   1.402       .  A
C779        C780   1.398       .  A
C779        F784   1.358       .  S
C780        C781   1.413       .  A
C780        F796   1.358       .  S
C781        C782   1.412       .  A
C782        F785   1.358       .  S
C783        C786   1.406       .  A
C783        C790   1.402       .  A
C786        C787   1.402       .  A
C786        F791   1.358       .  S
C787        C788   1.408       .  A
C787        F793   1.357       .  S
C788        C789   1.410       .  A
C789        C790   1.396       .  A
C789        F792   1.358       .  S
C790        F794   1.358       .  S
C797        C798   1.406       .  A
C797        C802   1.401       .  A
C797        F815   1.358       .  S
C798        C803   1.481       .  S
C798        C799   1.405       .  A
C799        C800   1.395       .  A
C799        F804   1.358       .  S
C800        C801   1.407       .  A
C800        F816   1.358       .  S
C801        C802   1.406       .  A
C802        F805   1.357       .  S
C803        C806   1.404       .  A
C803        C810   1.405       .  A
C806        C807   1.396       .  A
C806        F811   1.358       .  S
C807        C808   1.410       .  A
C807        F813   1.358       .  S
C808        C809   1.410       .  A
C809        C810   1.399       .  A
C809        F812   1.358       .  S
C810        F814   1.358       .  S
C817        C818   1.401       .  A
C817        C822   1.394       .  A
C817        F835   1.358       .  S
C818        C823   1.471       .  S
C818        C819   1.403       .  A
C819        C820   1.399       .  A
C819        F824   1.358       .  S
C820        C821   1.407       .  A
C820        F836   1.357       .  S
C821        C822   1.408       .  A
C822        F825   1.358       .  S
C823        C826   1.400       .  A
C823        C830   1.402       .  A
C826        C827   1.396       .  A
C826        F831   1.358       .  S
C827        C828   1.413       .  A
C827        F833   1.358       .  S
C828        C829   1.410       .  A
C829        C830   1.398       .  A
C829        F832   1.358       .  S
C830        F834   1.358       .  S
C837        C838   1.406       .  A
C837        C842   1.403       .  A
C837        F855   1.358       .  S
C838        C843   1.487       .  S
C838        C839   1.406   1_554  A
C839        C840   1.401       .  A
C839        F844   1.358       .  S
C840        C841   1.409   1_556  A
C840        F856   1.357       .  S
C841        C842   1.408       .  A
C842        F845   1.358       .  S
C843        C846   1.404   1_554  A
C843        C850   1.405       .  A
C846        C847   1.400       .  A
C846        F851   1.358       .  S
C847        C848   1.410   1_556  A
C847        F853   1.357       .  S
C848        C849   1.412       .  A
C849        C850   1.403       .  A
C849        F852   1.357       .  S
C850        F854   1.358       .  S
C857        C858   1.402       .  A
C857        C862   1.397       .  A
C857        F875   1.358       .  S
C858        C863   1.475       .  S
C858        C859   1.405       .  A
C859        C860   1.401       .  A
C859        F864   1.358       .  S
C860        C861   1.406       .  A
C860        F876   1.358       .  S
C861        C862   1.408       .  A
C862        F865   1.358       .  S
C863        C866   1.401       .  A
C863        C870   1.402       .  A
C866        C867   1.397       .  A
C866        F871   1.358       .  S
C867        C868   1.412       .  A
C867        F873   1.358       .  S
C868        C869   1.414       .  A
C869        C870   1.401       .  A
C869        F872   1.358       .  S
C870        F874   1.358       .  S
C877        C878   1.404       .  A
C877        C882   1.405       .  A
C877        F895   1.358       .  S
C878        C883   1.476       .  S
C878        C879   1.399       .  A
C879        C880   1.395       .  A
C879        F884   1.358       .  S
C880        C881   1.412       .  A
C880        F896   1.357       .  S
C881        C882   1.411       .  A
C882        F885   1.357       .  S
C883        C886   1.402       .  A
C883        C890   1.400       .  A
C886        C887   1.402       .  A
C886        F891   1.358       .  S
C887        C888   1.413       .  A
C887        F893   1.358       .  S
C888        C889   1.412       .  A
C889        C890   1.398       .  A
C889        F892   1.357       .  S
C890        F894   1.358       .  S
C897        C898   1.405   1_556  A
C897        C902   1.397       .  A
C897        F915   1.358       .  S
C898        C903   1.479       .  S
C898        C899   1.406       .  A
C899        C900   1.399       .  A
C899        F904   1.358       .  S
C900        C901   1.406       .  A
C900        F916   1.358       .  S
C901        C902   1.405   1_554  A
C902        F905   1.358       .  S
C903        C906   1.404       .  A
C903        C910   1.404   1_554  A
C906        C907   1.399       .  A
C906        F911   1.358       .  S
C907        C908   1.409   1_554  A
C907        F913   1.358       .  S
C908        C909   1.408       .  A
C909        C910   1.399       .  A
C909        F912   1.357       .  S
C910        F914   1.358       .  S
C917        C918   1.404       .  A
C917        C922   1.397       .  A
C917        F935   1.358       .  S
C918        C923   1.482       .  S
C918        C919   1.405       .  A
C919        C920   1.400       .  A
C919        F924   1.358       .  S
C920        C921   1.411       .  A
C920        F936   1.358       .  S
C921        C922   1.412       .  A
C922        F925   1.358       .  S
C923        C926   1.408       .  A
C923        C930   1.404       .  A
C926        C927   1.402       .  A
C926        F931   1.358       .  S
C927        C928   1.407       .  A
C927        F933   1.357       .  S
C928        C929   1.407       .  A
C929        C930   1.395       .  A
C929        F932   1.358       .  S
C930        F934   1.358       .  S
C937        C938   1.402       .  A
C937        C942   1.398       .  A
C937        F955   1.358       .  S
C938        C943   1.477       .  S
C938        C939   1.402       .  A
C939        C940   1.400       .  A
C939        F944   1.358       .  S
C940        C941   1.413       .  A
C940        F956   1.357       .  S
C941        C942   1.414       .  A
C942        F945   1.358       .  S
C943        C946   1.405       .  A
C943        C950   1.401       .  A
C946        C947   1.402       .  A
C946        F951   1.358       .  S
C947        C948   1.409       .  A
C947        F953   1.357       .  S
C948        C949   1.411       .  A
C949        C950   1.396       .  A
C949        F952   1.357       .  S
C950        F954   1.358       .  S
C957        C958   1.405   1_556  A
C957        C962   1.402       .  A
C957        F975   1.358       .  S
C958        C963   1.486       .  S
C958        C959   1.405       .  A
C959        C960   1.401       .  A
C959        F964   1.358       .  S
C960        C961   1.409       .  A
C960        F976   1.357       .  S
C961        C962   1.410   1_554  A
C962        F965   1.357       .  S
C963        C966   1.406   1_554  A
C963        C970   1.406       .  A
C966        C967   1.402       .  A
C966        F971   1.358       .  S
C967        C968   1.408   1_556  A
C967        F973   1.358       .  S
C968        C969   1.407       .  A
C969        C970   1.401       .  A
C969        F972   1.357       .  S
C970        F974   1.358       .  S
C977        C978   1.406       .  A
C977        C982   1.400       .  A
C977        F995   1.358       .  S
C978        C983   1.480       .  S
C978        C979   1.405       .  A
C979        C980   1.396       .  A
C979        F984   1.358       .  S
C980        C981   1.408       .  A
C980        F996   1.358       .  S
C981        C982   1.405       .  A
C982        F985   1.357       .  S
C983        C986   1.404       .  A
C983        C990   1.403       .  A
C986        C987   1.399       .  A
C986        F991   1.358       .  S
C987        C988   1.412       .  A
C987        F993   1.358       .  S
C988        C989   1.413       .  A
C989        C990   1.398       .  A
C989        F992   1.358       .  S
C990        F994   1.358       .  S
C997        C998   1.407       .  A
C997       C1002   1.402       .  A
C997       F1015   1.358       .  S
C998       C1003   1.481       .  S
C998        C999   1.404       .  A
C999       C1000   1.395       .  A
C999       F1004   1.358       .  S
C1000      C1001   1.406       .  A
C1000      F1016   1.358       .  S
C1001      C1002   1.405       .  A
C1002      F1005   1.358       .  S
C1003      C1006   1.405       .  A
C1003      C1010   1.403       .  A
C1006      C1007   1.401       .  A
C1006      F1011   1.358       .  S
C1007      C1008   1.411       .  A
C1007      F1013   1.358       .  S
C1008      C1009   1.411       .  A
C1009      C1010   1.397       .  A
C1009      F1012   1.358       .  S
C1010      F1014   1.358       .  S
C1017      C1018   1.405   1_556  A
C1017      C1022   1.397       .  A
C1017      F1035   1.358       .  S
C1018      C1023   1.486       .  S
C1018      C1019   1.407       .  A
C1019      C1020   1.402       .  A
C1019      F1024   1.358       .  S
C1020      C1021   1.411       .  A
C1020      F1036   1.357       .  S
C1021      C1022   1.409   1_554  A
C1022      F1025   1.357       .  S
C1023      C1026   1.407   1_554  A
C1023      C1030   1.408       .  A
C1026      C1027   1.397       .  A
C1026      F1031   1.358       .  S
C1027      C1028   1.406   1_556  A
C1027      F1033   1.357       .  S
C1028      C1029   1.406       .  A
C1029      C1030   1.401       .  A
C1029      F1032   1.358       .  S
C1030      F1034   1.358       .  S
C1037      C1038   1.403       .  A
C1037      C1042   1.396       .  A
C1037      F1055   1.358       .  S
C1038      C1043   1.478       .  S
C1038      C1039   1.403       .  A
C1039      C1040   1.400       .  A
C1039      F1044   1.358       .  S
C1040      C1041   1.412       .  A
C1040      F1056   1.358       .  S
C1041      C1042   1.411       .  A
C1042      F1045   1.358       .  S
C1043      C1046   1.405       .  A
C1043      C1050   1.403       .  A
C1046      C1047   1.401       .  A
C1046      F1051   1.358       .  S
C1047      C1048   1.408       .  A
C1047      F1053   1.357       .  S
C1048      C1049   1.407       .  A
C1049      C1050   1.393       .  A
C1049      F1052   1.358       .  S
C1050      F1054   1.358       .  S
C1057      C1058   1.401       .  A
C1057      C1062   1.395       .  A
C1057      F1075   1.358       .  S
C1058      C1063   1.472       .  S
C1058      C1059   1.402       .  A
C1059      C1060   1.399       .  A
C1059      F1064   1.358       .  S
C1060      C1061   1.412       .  A
C1060      F1076   1.358       .  S
C1061      C1062   1.412       .  A
C1062      F1065   1.358       .  S
C1063      C1066   1.400       .  A
C1063      C1070   1.403       .  A
C1066      C1067   1.395       .  A
C1066      F1071   1.358       .  S
C1067      C1068   1.411       .  A
C1067      F1073   1.357       .  S
C1068      C1069   1.408       .  A
C1069      C1070   1.399       .  A
C1069      F1072   1.357       .  S
C1070      F1074   1.358       .  S
C1077      C1078   1.406       .  A
C1077      C1082   1.402       .  A
C1077      F1095   1.358       .  S
C1078      C1083   1.481       .  S
C1078      C1079   1.403       .  A
C1079      C1080   1.396       .  A
C1079      F1084   1.358       .  S
C1080      C1081   1.410       .  A
C1080      F1096   1.358       .  S
C1081      C1082   1.408       .  A
C1082      F1085   1.357       .  S
C1083      C1086   1.403       .  A
C1083      C1090   1.403       .  A
C1086      C1087   1.399       .  A
C1086      F1091   1.358       .  S
C1087      C1088   1.413       .  A
C1087      F1093   1.358       .  S
C1088      C1089   1.412       .  A
C1089      C1090   1.399       .  A
C1089      F1092   1.358       .  S
C1090      F1094   1.358       .  S
C1097      C1098   1.400       .  A
C1097      C1102   1.394       .  A
C1097      F1115   1.358       .  S
C1098      C1103   1.470       .  S
C1098      C1099   1.404       .  A
C1099      C1100   1.400       .  A
C1099      F1104   1.358       .  S
C1100      C1101   1.407       .  A
C1100      F1116   1.358       .  S
C1101      C1102   1.408       .  A
C1102      F1105   1.358       .  S
C1103      C1106   1.401       .  A
C1103      C1110   1.401       .  A
C1106      C1107   1.398       .  A
C1106      F1111   1.358       .  S
C1107      C1108   1.411       .  A
C1107      F1113   1.358       .  S
C1108      C1109   1.409       .  A
C1109      C1110   1.396       .  A
C1109      F1112   1.358       .  S
C1110      F1114   1.358       .  S
