geometry optimzed in LAMMPS
_audit_creation_date              2020-11-30 
_audit_creation_method            'lammps2cif' 
_symmetry_space_group_name_H-M    'P1' 
_symmetry_Int_Tables_number       1 
_symmetry_cell_setting            triclinic 
loop_ 
_symmetry_equiv_pos_as_xyz 
  x,y,z 
_cell_length_a                    53.02333544 
_cell_length_b                    52.951081017702634 
_cell_length_c                    52.8529162091557 
_cell_angle_alpha                 90.00818860872575 
_cell_angle_beta                  89.38965136604428 
_cell_angle_gamma                 89.69015569986925 
loop_ 
_atom_site_label 
_atom_site_type_symbol 
_atom_site_fract_x 
_atom_site_fract_y 
_atom_site_fract_z 
_atom_site_charge 
O1          O  0.54339762  0.96208403  0.49027976    -0.79500
O2          O  0.46429873  0.95198292  0.50702422    -0.79500
O3          O  0.52284968  0.97994748  0.56248699    -0.79500
O4          O  0.49120634  0.96325857  0.46066687    -0.79400
O5          O  0.49562078  0.95125081  0.54967155    -0.79600
O6          O  0.52719139  0.97527292  0.44775769    -0.79500
O7          O  0.44828000  0.97804501  0.48028871    -0.79500
O8          O  0.55709472  0.98246076  0.52354795    -0.79500
C9          C  0.56018480  0.96549271  0.50655634     1.10200
C10         C  0.44545695  0.95895074  0.49441180     1.10100
C11         C  0.51199771  0.95888728  0.56531490     1.10200
C12         C  0.50832372  0.96217518  0.44387057     1.10100
O13         O  0.51286399  0.02069160  0.45720864    -0.79500
O14         O  0.47653097  0.99895110  0.56322966    -0.79500
O15         O  0.53844747  0.03321335  0.51204209    -0.79500
O16         O  0.46560191  0.02627265  0.49379859    -0.79500
O17         O  0.44615269  0.00197232  0.52172259    -0.79500
O18         O  0.55690095  0.01156012  0.48285582    -0.79500
O19         O  0.47474705  0.00949392  0.44495809    -0.79400
O20         O  0.50292685  0.02857367  0.55088274    -0.79500
Co21       Co  0.52552765  0.99243618  0.48026388     1.51500
Co22       Co  0.47256721  0.97637624  0.53362499     1.51700
Co23       Co  0.52785754  0.00520189  0.53503744     1.51600
Co24       Co  0.48160034  0.99626382  0.47814240     1.51500
O25         O  0.50087825  0.98998291  0.51053234    -1.41400
C26         C  0.49511486  0.02158877  0.44076546     1.10100
C27         C  0.48687763  0.02009445  0.56655581     1.10200
C28         C  0.55791610  0.02923135  0.49848566     1.10200
C29         C  0.44593354  0.02100190  0.50674601     1.10100
O30         O  0.95748036  0.53086555  0.49916043    -0.79500
O31         O  0.96449955  0.46060045  0.48465480    -0.79500
O32         O  0.97485049  0.50550308  0.45085672    -0.79500
O33         O  0.98508540  0.47212637  0.55510537    -0.79400
O34         O  0.98526801  0.46787720  0.43678571    -0.79600
O35         O  0.95611151  0.49801784  0.54003278    -0.79500
O36         O  0.98712198  0.44124902  0.51374356    -0.79500
O37         O  0.98461705  0.54956733  0.47517687    -0.79500
C38         C  0.96378810  0.55039196  0.48722445     1.10200
C39         C  0.96872792  0.44128799  0.49817045     1.10100
C40         C  0.97449234  0.48900559  0.43293405     1.10200
C41         C  0.96323588  0.48192235  0.55627564     1.10100
O42         O  0.00253080  0.51818472  0.55674008    -0.79500
O43         O  0.02771564  0.48970493  0.45368349    -0.79500
O44         O  0.03306971  0.53245380  0.49098143    -0.79500
O45         O  0.03772467  0.46032891  0.50279192    -0.79500
O46         O  0.01417759  0.44417033  0.47409259    -0.79500
O47         O  0.00591657  0.55074711  0.51716463    -0.79500
O48         O  0.03354849  0.49246765  0.54496445    -0.79400
O49         O  0.01946734  0.52793473  0.44014036    -0.79500
Co50       Co  0.98093751  0.52271458  0.52652526     1.51500
Co51       Co  0.99466912  0.47703768  0.47060540     1.51700
Co52       Co  0.00527447  0.51705208  0.47229884     1.51600
Co53       Co  0.01070302  0.46836232  0.52742168     1.51500
O54         O  0.99766979  0.49612834  0.50396072    -1.41400
C55         C  0.02439206  0.50901740  0.55998223     1.10100
C56         C  0.02966293  0.50648641  0.43607617     1.10200
C57         C  0.02669487  0.55125056  0.50454122     1.10200
C58         C  0.03261959  0.44169355  0.48895631     1.10100
O59         O  0.45341398  0.46622847  0.97206005    -0.79500
O60         O  0.54991432  0.49787765  0.95614498    -0.79500
O61         O  0.48712839  0.55104155  0.98017751    -0.79500
O62         O  0.52666415  0.44248512  0.98951574    -0.79400
O63         O  0.51458401  0.53614608  0.95316300    -0.79600
O64         O  0.50305643  0.46040166  0.96026811    -0.79500
O65         O  0.56575115  0.47471130  0.98651715    -0.79500
O66         O  0.46190194  0.50706782  0.96746086    -0.79500
C67         C  0.44885814  0.48711972  0.96132714     1.10200
C68         C  0.56750944  0.48413410  0.96426253     1.10100
C69         C  0.49871533  0.55295672  0.95935174     1.10200
C70         C  0.51693492  0.44227451  0.96772544     1.10100
O71         O  0.48363568  0.44865546  0.00932993    -0.79500
O72         O  0.52950924  0.55229638  0.00335756    -0.79500
O73         O  0.45167966  0.53303805  0.01054741    -0.79500
O74         O  0.54838502  0.49790461  0.03397371    -0.79500
O75         O  0.56780879  0.51813022  0.00371545    -0.79500
O76         O  0.45730684  0.49190815  0.01541417    -0.79500
O77         O  0.51000458  0.46298767  0.03731422    -0.79400
O78         O  0.50003342  0.53621906  0.02887616    -0.79500
Co79       Co  0.48281044  0.47872834  0.98652723     1.51500
Co80       Co  0.53851303  0.52433377  0.97949280     1.51700
Co81       Co  0.48272051  0.51940674  0.99994427     1.51600
Co82       Co  0.53604442  0.47146420  0.01143914     1.51500
O83         O  0.51385729  0.49850379  0.99478670    -1.41400
C84         C  0.49343189  0.44715821  0.03104132     1.10100
C85         C  0.51721903  0.55246967  0.02419849     1.10200
C86         C  0.44409187  0.51230153  0.01951676     1.10200
C87         C  0.56800916  0.50847326  0.02580092     1.10100
C88         C  0.57050401  0.92144707  0.74139506     0.80900
N89         N  0.58917769  0.90381594  0.74247585    -0.77400
C90         C  0.60246197  0.90033675  0.76393812     0.83300
N91         N  0.59720362  0.91469002  0.78457571    -0.77400
C92         C  0.57871027  0.93259898  0.78398639     0.83400
N93         N  0.56545790  0.93607501  0.76218061    -0.79100
C94         C  0.75478367  0.72704352  0.77103793     0.80900
N95         N  0.73678352  0.74543756  0.77235644    -0.77400
C96         C  0.73543828  0.76378966  0.75443418     0.83300
N97         N  0.75253092  0.76380923  0.73512249    -0.77400
C98         C  0.77090637  0.74588585  0.73369932     0.83400
N99         N  0.77191934  0.72754236  0.75169223    -0.79100
C100        C  0.91801028  0.72095933  0.55512146     0.80900
N101        N  0.89993760  0.72129719  0.57358180    -0.77400
C102        C  0.89576708  0.74221006  0.58790987     0.83300
N103        N  0.90988152  0.76305018  0.58335868    -0.77400
C104        C  0.92810657  0.76330590  0.56512638     0.83400
N105        N  0.93207661  0.74211458  0.55087604    -0.79100
C106        C  0.77252798  0.57024202  0.94093767     0.80900
N107        N  0.77300160  0.58859707  0.92292458    -0.77400
C108        C  0.75365932  0.59152771  0.90651593     0.83300
N109        N  0.73356393  0.57572726  0.90814928    -0.77400
C110        C  0.73252743  0.55756841  0.92631348     0.83400
N111        N  0.75211091  0.55486362  0.94256090    -0.79100
C112        C  0.27278245  0.22740817  0.74419934     0.80900
N113        N  0.25662243  0.22780458  0.72438957    -0.77400
C114        C  0.24192432  0.24840677  0.71978862     0.83300
N115        N  0.24380932  0.26899231  0.73508738    -0.77400
C116        C  0.26004270  0.26896473  0.75484338     0.83400
N117        N  0.27432380  0.24809764  0.75922275    -0.79100
C118        C  0.28131938  0.44676060  0.90154840     0.80900
N119        N  0.28202613  0.42749733  0.88448370    -0.77400
C120        C  0.26150816  0.41284596  0.88063015     0.83300
N121        N  0.24000207  0.41792439  0.89372669    -0.77400
C122        C  0.23861802  0.43706246  0.91079882     0.83400
N123        N  0.25949488  0.45145663  0.91474655    -0.79100
C124        C  0.42015034  0.05170870  0.78446191     0.80900
N125        N  0.43407199  0.04736073  0.76303797    -0.77400
C126        C  0.43047281  0.06174714  0.74206269     0.83300
N127        N  0.41256898  0.08004575  0.74241518    -0.77400
C128        C  0.39816622  0.08440215  0.76328182     0.83400
N129        N  0.40208855  0.07018983  0.78433249    -0.79100
C130        C  0.07660487  0.22816154  0.56720649     0.80900
N131        N  0.09846583  0.22850381  0.58032203    -0.77400
C132        C  0.11326247  0.24930997  0.58102145     0.83300
N133        N  0.10588612  0.27019308  0.56807764    -0.77400
C134        C  0.08411731  0.27045633  0.55461145     0.83400
N135        N  0.06954169  0.24924822  0.55412857    -0.79100
O136        O  0.46857705  0.00847131  0.97373532    -0.79500
O137        O  0.46322684  0.99548704  0.04485764    -0.79500
O138        O  0.49555582  0.94042544  0.98696720    -0.79500
O139        O  0.47525144  0.04475468  0.01593386    -0.79400
O140        O  0.46536921  0.95327080  0.01329487    -0.79600
O141        O  0.48614665  0.05765489  0.97807220    -0.79500
O142        O  0.48818348  0.02283526  0.06108199    -0.79500
O143        O  0.49340337  0.98030374  0.95498247    -0.79500
C144        C  0.47348275  0.99419828  0.95505626     1.10200
C145        C  0.46872687  0.00928413  0.06335310     1.10100
C146        C  0.47373044  0.93803052  0.99654787     1.10200
C147        C  0.47438429  0.06196612  0.99865725     1.10100
O148        O  0.52948820  0.04429120  0.00058014    -0.79500
O149        O  0.51337302  0.94109628  0.03302751    -0.79500
O150        O  0.54323923  0.99564238  0.97353586    -0.79500
O151        O  0.53726335  0.01049293  0.04371661    -0.79500
O152        O  0.51380752  0.98252385  0.06402220    -0.79500
O153        O  0.51721904  0.02129024  0.95599847    -0.79500
O154        O  0.51821762  0.05907765  0.03777164    -0.79400
O155        O  0.54284185  0.95457840  0.00658936    -0.79500
Co156      Co  0.49775338  0.02497302  0.98898123     1.51500
Co157      Co  0.48918608  0.96983683  0.03710572     1.51700
Co158      Co  0.51848070  0.96951663  0.98223864     1.51600
Co159      Co  0.50747558  0.02589116  0.02809520     1.51500
O160        O  0.50313988  0.99261653  0.00917525    -1.41400
C161        C  0.53008452  0.06223195  0.01706874     1.10100
C162        C  0.53499739  0.93867754  0.02285291     1.10200
C163        C  0.53694406  0.00782900  0.95418343     1.10200
C164        C  0.53314522  0.99702019  0.06309987     1.10100
C165        C  0.26884447  0.75779770  0.76858247     0.80900
N166        N  0.26805831  0.77596680  0.75046772    -0.77400
C167        C  0.24776404  0.77841108  0.73517097     0.83300
N168        N  0.22788999  0.76244232  0.73812238    -0.77400
C169        C  0.22854964  0.74393977  0.75602204     0.83400
N170        N  0.24910687  0.74176786  0.77097845    -0.79100
C171        C  0.44527361  0.72637026  0.91294957     0.80900
N172        N  0.44848153  0.74711630  0.92797191    -0.77400
C173        C  0.43446459  0.76844612  0.92403551     0.83300
N174        N  0.41770010  0.76883955  0.90484455    -0.77400
C175        C  0.41430825  0.74851518  0.88971607     0.83400
N176        N  0.42815938  0.72735668  0.89394857    -0.79100
C177        C  0.22737751  0.94324404  0.57447112     0.80900
N178        N  0.24889372  0.94745940  0.56067133    -0.77400
C179        C  0.26992528  0.93310226  0.56486670     0.83300
N180        N  0.26947876  0.91495920  0.58300786    -0.77400
C181        C  0.24819340  0.91060477  0.59671329     0.83400
N182        N  0.22735167  0.92484161  0.59240624    -0.79100
C183        C  0.06086536  0.58694139  0.77308060     0.80900
N184        N  0.05731573  0.57368950  0.75121477    -0.77400
C185        C  0.07199745  0.57827982  0.73030845     0.83300
N186        N  0.08992131  0.59647523  0.73151985    -0.77400
C187        C  0.09368015  0.60973637  0.75309233     0.83400
N188        N  0.07913131  0.60483519  0.77377164    -0.79100
C189        C  0.75195243  0.26485775  0.22294284     0.80900
N190        N  0.73354933  0.24711965  0.22461796    -0.77400
C191        C  0.73285225  0.23086859  0.24457616     0.83300
N192        N  0.75039886  0.23273717  0.26304486    -0.77400
C193        C  0.76892965  0.25035364  0.26157516     0.83400
N194        N  0.76953240  0.26625492  0.24138243    -0.79100
C195        C  0.92803439  0.27190889  0.42644518     0.80900
N196        N  0.91158101  0.27322491  0.40689078    -0.77400
C197        C  0.90751768  0.25312237  0.39162867     0.83300
N198        N  0.92004802  0.23133520  0.39634908    -0.77400
C199        C  0.93668820  0.22920633  0.41564877     0.83400
N200        N  0.94060575  0.24971077  0.43083296    -0.79100
C201        C  0.77884475  0.42803036  0.06133891     0.80900
N202        N  0.77781840  0.40824592  0.07768268    -0.77400
C203        C  0.75619128  0.40277480  0.09039313     0.83300
N204        N  0.73539209  0.41741983  0.08689502    -0.77400
C205        C  0.73601580  0.43747721  0.07074892     0.83400
N206        N  0.75788543  0.44264379  0.05797960    -0.79100
C207        C  0.57005892  0.06915489  0.27501484     0.80900
N208        N  0.56660580  0.05554067  0.25347146    -0.77400
C209        C  0.58065431  0.06034571  0.23233220     0.83300
N210        N  0.59810148  0.07900961  0.23285455    -0.77400
C211        C  0.60177985  0.09276782  0.25414267     0.83400
N212        N  0.58763100  0.08783089  0.27514473    -0.79100
O213        O  0.95943106  0.52826292  0.98993046    -0.79500
O214        O  0.06466830  0.51993771  0.01747017    -0.79500
O215        O  0.99471608  0.54049034  0.03252543    -0.79500
O216        O  0.00606830  0.54612088  0.96162271    -0.79400
O217        O  0.02514984  0.51888979  0.05097650    -0.79600
O218        O  0.98208410  0.51851817  0.94464684    -0.79500
O219        O  0.04705623  0.54796222  0.99229810    -0.79500
O220        O  0.94745151  0.51877700  0.02866876    -0.79500
C221        C  0.94229749  0.52865604  0.00743742     1.10200
C222        C  0.06428892  0.54163641  0.00736557     1.10100
C223        C  0.00942945  0.53739310  0.05105878     1.10200
C224        C  0.99319217  0.53959764  0.94299233     1.10100
O225        O  0.00002111  0.47033892  0.96066384    -0.79500
O226        O  0.01469871  0.46712172  0.03441189    -0.79500
O227        O  0.96371950  0.47605543  0.00603786    -0.79500
O228        O  0.06453604  0.50081554  0.97188457    -0.79500
O229        O  0.05401073  0.47078087  0.99920242    -0.79500
O230        O  0.95032709  0.48373229  0.96747890    -0.79500
O231        O  0.02419712  0.49761398  0.94073567    -0.79400
O232        O  0.98615750  0.49128421  0.05087099    -0.79500
Co233      Co  0.98145294  0.49810419  0.97730999     1.51500
Co234      Co  0.03783858  0.49432731  0.02375229     1.51700
Co235      Co  0.98077131  0.50954859  0.01753497     1.51600
Co236      Co  0.03392924  0.52265683  0.96851016     1.51500
O237        O  0.01315042  0.50631557  0.99672896    -1.41400
C238        C  0.01207221  0.47675255  0.94088362     1.10100
C239        C  0.00110882  0.47273066  0.05333587     1.10200
C240        C  0.94693542  0.47302647  0.98870844     1.10200
C241        C  0.06820496  0.47922403  0.98167445     1.10100
C242        C  0.23364953  0.04248212  0.41803272     0.80900
N243        N  0.25370434  0.03957133  0.43381888    -0.77400
C244        C  0.27449708  0.05445249  0.43115219     0.83300
N245        N  0.27488992  0.07233227  0.41274723    -0.77400
C246        C  0.25515492  0.07551774  0.39686691     0.83400
N247        N  0.23452560  0.06052880  0.39967264    -0.79100
C248        C  0.25117335  0.22012012  0.27133792     0.80900
N249        N  0.23276020  0.23813568  0.27179219    -0.77400
C250        C  0.23210330  0.25678118  0.25407907     0.83300
N251        N  0.25034631  0.25728856  0.23586201    -0.77400
C252        C  0.26875625  0.23943144  0.23494989     0.83400
N253        N  0.26913594  0.22089243  0.25273218    -0.79100
C254        C  0.07938117  0.42870995  0.26748046     0.80900
N255        N  0.09368050  0.40743853  0.26845991    -0.77400
C256        C  0.09642515  0.39179662  0.24824068     0.83300
N257        N  0.08423599  0.39766684  0.22639668    -0.77400
C258        C  0.06942545  0.41879481  0.22485832     0.83400
N259        N  0.06727296  0.43429403  0.24547300    -0.79100
C260        C  0.43762673  0.27530210  0.07963658     0.80900
N261        N  0.41887812  0.27415023  0.09740474    -0.77400
C262        C  0.40597341  0.25237821  0.10133627     0.83300
N263        N  0.41192757  0.23162936  0.08745388    -0.77400
C264        C  0.43051966  0.23235285  0.06960774     0.83400
N265        N  0.44341999  0.25426310  0.06573798    -0.79100
C266        C  0.77461567  0.26036132  0.74915645     0.80900
N267        N  0.75480922  0.25996043  0.76563797    -0.77400
C268        C  0.73614202  0.24260271  0.76356245     0.83300
N269        N  0.73772633  0.22515758  0.74472798    -0.77400
C270        C  0.75735300  0.22530027  0.72793675     0.83400
N271        N  0.77570785  0.24297573  0.73019213    -0.79100
C272        C  0.93998454  0.42057445  0.77567234     0.80900
N273        N  0.94148037  0.43378665  0.75342749    -0.77400
C274        C  0.92740775  0.42663728  0.73316676     0.83300
N275        N  0.91194427  0.40648656  0.73570658    -0.77400
C276        C  0.91009282  0.39315537  0.75748968     0.83400
N277        N  0.92437308  0.40024453  0.77743243    -0.79100
C278        C  0.58168502  0.22597559  0.93664181     0.80900
N279        N  0.56984375  0.24856915  0.94062115    -0.77400
C280        C  0.57482077  0.26847884  0.92502558     0.83300
N281        N  0.59183973  0.26563981  0.90591478    -0.77400
C282        C  0.60392498  0.24339734  0.90207684     0.83400
N283        N  0.59864479  0.22348142  0.91731695    -0.79100
C284        C  0.77229384  0.05524112  0.57372536     0.80900
N285        N  0.75055481  0.05011859  0.56113716    -0.77400
C286        C  0.72972912  0.06500687  0.56450315     0.83300
N287        N  0.73086972  0.08512247  0.58038702    -0.77400
C288        C  0.75221369  0.09055166  0.59313437     0.83400
N289        N  0.77285182  0.07556004  0.58950935    -0.79100
C290        C  0.75911012  0.77156274  0.27591292     0.80900
N291        N  0.74155788  0.77223452  0.25723192    -0.77400
C292        C  0.74175534  0.75432364  0.23870476     0.83300
N293        N  0.75974426  0.73596452  0.23908237    -0.77400
C294        C  0.77730427  0.73494093  0.25752708     0.83400
N295        N  0.77670667  0.75279598  0.27598580    -0.79100
C296        C  0.73461070  0.92682107  0.44617640     0.80900
N297        N  0.75564786  0.94104020  0.44970511    -0.77400
C298        C  0.77700433  0.93608566  0.43594520     0.83300
N299        N  0.77720636  0.91708185  0.41862542    -0.77400
C300        C  0.75624353  0.90302617  0.41472659     0.83400
N301        N  0.73525167  0.90800093  0.42870511    -0.79100
C302        C  0.94456987  0.57966609  0.22402885     0.80900
N303        N  0.92787340  0.59911119  0.22707835    -0.77400
C304        C  0.91483549  0.60222721  0.24915023     0.83300
N305        N  0.91850132  0.58556936  0.26823632    -0.77400
C306        C  0.93527843  0.56626127  0.26585588     0.83400
N307        N  0.94836159  0.56335765  0.24367257    -0.79100
C308        C  0.58633342  0.76351117  0.07056840     0.80900
N309        N  0.60538201  0.76338910  0.08755562    -0.77400
C310        C  0.61070342  0.74253653  0.10141610     0.83300
N311        N  0.59661053  0.72144854  0.09826675    -0.77400
C312        C  0.57757544  0.72095103  0.08119092     0.83400
N313        N  0.57252343  0.74210114  0.06728133    -0.79100
C314        C  0.24278666  0.74296282  0.27123184     0.80900
N315        N  0.26067456  0.76114345  0.27368582    -0.77400
C316        C  0.27840269  0.76458156  0.25524539     0.83300
N317        N  0.27833706  0.74971399  0.23437028    -0.77400
C318        C  0.26073427  0.73146101  0.23183381     0.83400
N319        N  0.24280015  0.72836928  0.25005374    -0.79100
C320        C  0.44292767  0.92318655  0.27417690     0.80900
N321        N  0.42525351  0.90469821  0.27449247    -0.77400
C322        C  0.40979363  0.90121801  0.25455578     0.83300
N323        N  0.41173842  0.91667044  0.23417571    -0.77400
C324        C  0.42905878  0.93547407  0.23356923     0.83400
N325        N  0.44486161  0.93848901  0.25352559    -0.79100
C326        C  0.07045672  0.76142948  0.42419822     0.80900
N327        N  0.06688281  0.74087000  0.43926021    -0.77400
C328        C  0.08079343  0.71948355  0.43545468     0.83300
N329        N  0.09840129  0.71897877  0.41659799    -0.77400
C330        C  0.10222184  0.73938305  0.40142967     0.83400
N331        N  0.08808246  0.76052942  0.40537909    -0.79100
C332        C  0.27666122  0.57668896  0.06418233     0.80900
N333        N  0.27773112  0.59475745  0.08234514    -0.77400
C334        C  0.25791751  0.61046028  0.08643314     0.83300
N335        N  0.23694200  0.60809327  0.07227433    -0.77400
C336        C  0.23560490  0.59036335  0.05376453     0.83400
N337        N  0.25569992  0.57466682  0.04967816    -0.79100
O338        O  0.99191634  0.95050894  0.52204493    -0.79500
O339        O  0.02505242  0.05270928  0.50583206    -0.79500
O340        O  0.03651344  0.98486938  0.53333306    -0.79500
O341        O  0.96371237  0.99905865  0.53412301    -0.79400
O342        O  0.05638539  0.01231680  0.50871790    -0.79600
O343        O  0.94852574  0.97245233  0.50724813    -0.79500
O344        O  0.99773384  0.03985634  0.53493025    -0.79500
O345        O  0.02995979  0.93537681  0.51589515    -0.79500
C346        C  0.00763093  0.93204038  0.52421091     1.10200
C347        C  0.01458925  0.05520913  0.52740383     1.10100
C348        C  0.05547180  0.99883196  0.52884786     1.10200
C349        C  0.94525539  0.98606322  0.52672831     1.10100
O350        O  0.96746348  0.98547963  0.45908111    -0.79500
O351        O  0.04076722  0.99730443  0.45777769    -0.79500
O352        O  0.01163731  0.95007230  0.47058769    -0.79500
O353        O  0.98091933  0.05357790  0.48585794    -0.79500
O354        O  0.00775755  0.03879447  0.45706706    -0.79500
O355        O  0.97332402  0.93600428  0.47674757    -0.79500
O356        O  0.94893032  0.01410083  0.48355838    -0.79400
O357        O  0.05543679  0.97092792  0.48519083    -0.79500
Co358      Co  0.98216340  0.96917713  0.48916172     1.51500
Co359      Co  0.03061087  0.02353831  0.48254116     1.51700
Co360      Co  0.02172481  0.96873374  0.50334781     1.51600
Co361      Co  0.97466258  0.02487728  0.50949156     1.51500
O362        O  0.00230595  0.00123399  0.49613162    -1.41400
C363        C  0.94886868  0.00004884  0.46383837     1.10100
C364        C  0.05873967  0.98340476  0.46495755     1.10200
C365        C  0.99559060  0.93204557  0.46841177     1.10200
C366        C  0.99139786  0.05498496  0.46422041     1.10100
C367        C  0.03361652  0.82287728  0.41693854    -0.13700
C368        C  0.03632527  0.83351989  0.44103404     0.16700
C369        C  0.04996439  0.82007332  0.45954531     0.03000
C370        C  0.05991640  0.79613230  0.45389277    -0.12200
C371        C  0.05724077  0.78548534  0.42981049    -0.03300
C372        C  0.04415472  0.79916852  0.41107743     0.02200
C373        C  0.02568758  0.85906966  0.44612199     0.09100
N374        N  0.05426067  0.83058376  0.48402765     0.65400
H375        H  0.07047182  0.78609514  0.46822272     0.18300
N376        N  0.04101918  0.78910655  0.38619665     0.75900
H377        H  0.02344153  0.83317959  0.40252535     0.09800
C378        C  0.04152958  0.87983600  0.45011363     0.03500
C379        C  0.03105650  0.90329276  0.45669356    -0.05200
C380        C  0.00470889  0.90703228  0.45865821    -0.23600
C381        C  0.98880499  0.88639142  0.45304070     0.12800
C382        C  0.99946401  0.86271244  0.44692682    -0.12700
N383        N  0.06826697  0.87753885  0.44666703     0.64500
H384        H  0.04386471  0.91870617  0.46034867     0.12300
N385        N  0.96197354  0.88904696  0.45260748     0.61100
H386        H  0.98715113  0.84690754  0.44317719     0.08500
O387        O  0.04704715  0.80221898  0.36715325    -0.40400
O388        O  0.02829699  0.76928240  0.38318174    -0.39500
O389        O  0.03678655  0.83029710  0.50038342    -0.39500
O390        O  0.07655931  0.83477868  0.49094610    -0.37200
O391        O  0.95037251  0.88371531  0.43258174    -0.38100
O392        O  0.94974676  0.89079902  0.47314682    -0.34300
O393        O  0.07728198  0.87159233  0.42527309    -0.35700
O394        O  0.08294603  0.88380719  0.46417557    -0.40000
C395        C  0.28209587  0.68675055  0.18005562    -0.13700
C396        C  0.26085755  0.68654765  0.16438981     0.16700
C397        C  0.23967691  0.70152950  0.17099315     0.03000
C398        C  0.23965996  0.71553580  0.19346559    -0.12200
C399        C  0.26082081  0.71554649  0.20908179    -0.03300
C400        C  0.28224548  0.70119720  0.20223078     0.02200
C401        C  0.25983693  0.66818426  0.14320542     0.09100
N402        N  0.21833274  0.70309556  0.15472405     0.65400
H403        H  0.22334533  0.72701142  0.19839531     0.18300
N404        N  0.30357667  0.69983875  0.21851461     0.75900
H405        H  0.29819269  0.67477990  0.17565869     0.09800
C406        C  0.27936690  0.66625088  0.12490758     0.03500
C407        C  0.27892044  0.64673254  0.10698279    -0.05200
C408        C  0.25885678  0.62961600  0.10650005    -0.23600
C409        C  0.23931762  0.63161556  0.12461224     0.12800
C410        C  0.24001950  0.65070061  0.14283139    -0.12700
N411        N  0.29916567  0.68449710  0.12372722     0.64500
H412        H  0.29378918  0.64549398  0.09279701     0.12300
N413        N  0.21940582  0.61350897  0.12557084     0.61100
H414        H  0.22541738  0.65132858  0.15731928     0.08500
O415        O  0.32436434  0.70920699  0.21160580    -0.40400
O416        O  0.30218378  0.68752337  0.23892038    -0.39500
O417        O  0.19676255  0.69689113  0.16281079    -0.39500
O418        O  0.22066496  0.71269667  0.13297555    -0.37200
O419        O  0.22403486  0.59104843  0.13211409    -0.38100
O420        O  0.19689647  0.62044612  0.12214954    -0.34300
O421        O  0.32191903  0.67737523  0.12367898    -0.35700
O422        O  0.29394597  0.70742814  0.11973707    -0.40000
C423        C  0.14249619  0.75391432  0.34268285    -0.13700
C424        C  0.16116252  0.73523459  0.34437187     0.16700
C425        C  0.16035479  0.71794903  0.36452366     0.03000
C426        C  0.14100718  0.71960591  0.38269398    -0.12200
C427        C  0.12227815  0.73854205  0.38141296    -0.03300
C428        C  0.12328521  0.75592651  0.36100430     0.02200
C429        C  0.18235698  0.73538580  0.32596758     0.09100
N430        N  0.17901701  0.69852327  0.36667443     0.65400
H431        H  0.14088986  0.70606379  0.39803763     0.18300
N432        N  0.10516429  0.77581666  0.35845557     0.75900
H433        H  0.14325037  0.76750095  0.32735756     0.09800
C434        C  0.17898442  0.72814464  0.30064419     0.03500
C435        C  0.19901718  0.73020364  0.28328375    -0.05200
C436        C  0.22253597  0.73983150  0.29065306    -0.23600
C437        C  0.22584209  0.74684793  0.31622731     0.12800
C438        C  0.20583039  0.74449837  0.33357856    -0.12700
N439        N  0.15522403  0.71885938  0.29230957     0.64500
H440        H  0.19590114  0.72479898  0.26379719     0.12300
N441        N  0.24944889  0.75606222  0.32502761     0.61100
H442        H  0.20850726  0.75018272  0.35306464     0.08500
O443        O  0.10828206  0.79618859  0.37039717    -0.40400
O444        O  0.09014323  0.77543673  0.34010366    -0.39500
O445        O  0.19584239  0.70022651  0.38328104    -0.39500
O446        O  0.17639876  0.67807371  0.35475412    -0.37200
O447        O  0.25176826  0.77916689  0.33031930    -0.38100
O448        O  0.26646737  0.74062772  0.33133403    -0.34300
O449        O  0.13976550  0.73364352  0.28186918    -0.35700
O450        O  0.15086441  0.69546417  0.29282129    -0.40000
C451        C  0.33006815  0.80831584  0.27755429    -0.13700
C452        C  0.33065767  0.82626590  0.25793034     0.16700
C453        C  0.31341712  0.82395051  0.23785484     0.03000
C454        C  0.29696035  0.80337832  0.23718149    -0.12200
C455        C  0.29649981  0.78551376  0.25673241    -0.03300
C456        C  0.31300688  0.78815692  0.27724768     0.02200
C457        C  0.35082660  0.84577988  0.25738260     0.09100
N458        N  0.31195867  0.84269474  0.21838519     0.65400
H459        H  0.28391264  0.80171746  0.22162373     0.18300
N460        N  0.31371653  0.76974229  0.29706725     0.75900
H461        H  0.34366272  0.80928708  0.29266402     0.09800
C462        C  0.35647623  0.86055314  0.27883590     0.03500
C463        C  0.37638009  0.87783026  0.27778766    -0.05200
C464        C  0.39046553  0.88127072  0.25545888    -0.23600
C465        C  0.38520694  0.86625095  0.23417150     0.12800
C466        C  0.36567658  0.84859591  0.23535775    -0.12700
N467        N  0.34154273  0.85902095  0.30146734     0.64500
H468        H  0.38016027  0.88939342  0.29422626     0.12300
N469        N  0.40038058  0.86777498  0.21169651     0.61100
H470        H  0.36244919  0.83663009  0.21909553     0.08500
O471        O  0.31274861  0.77670310  0.31989633    -0.40400
O472        O  0.31842213  0.74691452  0.29188893    -0.39500
O473        O  0.31358091  0.83630303  0.19541607    -0.39500
O474        O  0.30668349  0.86528786  0.22403606    -0.37200
O475        O  0.42204520  0.85778642  0.21121804    -0.38100
O476        O  0.39090562  0.87590942  0.19145163    -0.34300
O477        O  0.35173870  0.85298965  0.32208833    -0.35700
O478        O  0.31904368  0.86690907  0.30150703    -0.40000
C479        C  0.89334720  0.97074116  0.42955453    -0.13700
C480        C  0.87345519  0.98626765  0.43816370     0.16700
C481        C  0.87943938  0.00887360  0.45081253     0.03000
C482        C  0.90453866  0.01385986  0.45699136    -0.12200
C483        C  0.92444080  0.99747279  0.45010802    -0.03300
C484        C  0.91862323  0.97619669  0.43508952     0.02200
C485        C  0.84749211  0.97549042  0.43873575     0.09100
N486        N  0.86036347  0.02614682  0.45938448     0.65400
H487        H  0.90812970  0.03002474  0.46884191     0.18300
N488        N  0.93758004  0.95830867  0.42777829     0.75900
H489        H  0.88907018  0.95329559  0.41980817     0.09800
C490        C  0.82689931  0.98580695  0.42526884     0.03500
C491        C  0.80331166  0.97368441  0.42630005    -0.05200
C492        C  0.80016378  0.95093917  0.43950679    -0.23600
C493        C  0.82052907  0.94087746  0.45307304     0.14800
C494        C  0.84373410  0.95334346  0.45294488    -0.12700
N495        N  0.82991917  0.00722982  0.40898402     0.64500
H496        H  0.78781953  0.98109405  0.41528197     0.12300
N497        N  0.81814493  0.91748996  0.46634215     0.61100
H498        H  0.85924932  0.94521061  0.46343371     0.08500
O499        O  0.93616830  0.93593105  0.43578788    -0.40400
O500        O  0.95253916  0.96340092  0.40979387    -0.39500
O501        O  0.85953331  0.03200586  0.48252114    -0.39500
O502        O  0.85081019  0.04118495  0.44361120    -0.37200
O503        O  0.82352563  0.89704699  0.45520855    -0.38100
O504        O  0.81459098  0.91756103  0.48998265    -0.34300
O505        O  0.84756697  0.00758397  0.39277773    -0.35700
O506        O  0.81295467  0.02403691  0.40824751    -0.40000
C507        C  0.68068582  0.76216596  0.20134532    -0.13700
C508        C  0.68677526  0.74897980  0.17906998     0.16700
C509        C  0.71123375  0.73897367  0.17595549     0.03000
C510        C  0.72883576  0.74150553  0.19532944    -0.12200
C511        C  0.72272706  0.75409778  0.21808474    -0.03300
C512        C  0.69838642  0.76494447  0.22072536     0.02200
C513        C  0.66764367  0.74643744  0.15895368     0.09100
N514        N  0.71827753  0.72562330  0.15343979     0.65400
H515        H  0.74741109  0.73337132  0.19250218     0.18300
N516        N  0.69102119  0.77829824  0.24310156     0.75900
H517        H  0.66203400  0.77035148  0.20370657     0.09800
C518        C  0.64585803  0.73170581  0.16258221     0.03500
C519        C  0.62790689  0.73003151  0.14336803    -0.05200
C520        C  0.63107301  0.74318547  0.12047609    -0.23600
C521        C  0.65308386  0.75779202  0.11681784     0.12800
C522        C  0.67108138  0.75926379  0.13599913    -0.12700
N523        N  0.64176171  0.71831895  0.18570997     0.64500
H524        H  0.61110415  0.71889760  0.14665317     0.12300
N525        N  0.65776116  0.77076924  0.09353121     0.61100
H526        H  0.68782464  0.77057097  0.13299805     0.08500
O527        O  0.68018210  0.76659667  0.26090033    -0.40400
O528        O  0.69046480  0.80211978  0.24283198    -0.39500
O529        O  0.73209017  0.73620898  0.13704843    -0.39500
O530        O  0.71425931  0.70221089  0.15191973    -0.37200
O531        O  0.65821660  0.79459140  0.09318272    -0.38100
O532        O  0.66514880  0.75853986  0.07431927    -0.34300
O533        O  0.62741698  0.72760776  0.20252783    -0.35700
O534        O  0.64917509  0.69572933  0.18765356    -0.40000
C535        C  0.81936956  0.67910217  0.23795037    -0.13700
C536        C  0.83628538  0.67811869  0.25800914     0.16700
C537        C  0.83362784  0.69536586  0.27810797     0.03000
C538        C  0.81421936  0.71345270  0.27773569    -0.12200
C539        C  0.79713390  0.71475704  0.25749943    -0.03300
C540        C  0.79988506  0.69701660  0.23749295     0.02200
C541        C  0.85694646  0.65928047  0.25706744     0.09100
N542        N  0.85094064  0.69520434  0.29864049     0.65400
H543        H  0.81275120  0.72665558  0.29334515     0.18300
N544        N  0.78347786  0.69703785  0.21624051     0.75900
H545        H  0.82137619  0.66584728  0.22241370     0.09800
C546        C  0.85529385  0.63639874  0.27046981     0.03500
C547        C  0.87475010  0.61849766  0.26827226    -0.05200
C548        C  0.89567887  0.62263711  0.25220681    -0.23600
C549        C  0.89728731  0.64576125  0.23893258     0.12800
C550        C  0.87798157  0.66380775  0.24149069    -0.12700
N551        N  0.83330304  0.63049837  0.28516873     0.64500
H552        H  0.87287775  0.60077338  0.27834832     0.12300
N553        N  0.91860104  0.65148546  0.22323532     0.61100
H554        H  0.87933828  0.68143719  0.23115812     0.08500
O555        O  0.76412552  0.68326878  0.21656330    -0.40400
O556        O  0.79087642  0.70663217  0.19562747    -0.39500
O557        O  0.86924876  0.71032828  0.29846347    -0.39500
O558        O  0.84535196  0.68359842  0.31875947    -0.37200
O559        O  0.91619745  0.65223579  0.19952113    -0.38100
O560        O  0.93846823  0.65978519  0.23311606    -0.34300
O561        O  0.81304957  0.62501993  0.27415561    -0.35700
O562        O  0.83509371  0.62693978  0.30868642    -0.40000
C563        C  0.75270465  0.83319549  0.31280711    -0.13700
C564        C  0.75790272  0.82506878  0.33746571     0.16700
C565        C  0.76329264  0.79937364  0.34183259     0.03000
C566        C  0.76411530  0.78243182  0.32142116    -0.12200
C567        C  0.75886935  0.79048010  0.29665535    -0.03300
C568        C  0.75325782  0.81623392  0.29239516     0.02200
C569        C  0.75774968  0.84386830  0.35825959     0.09100
N570        N  0.76671274  0.79003808  0.36698300     0.65400
H571        H  0.76801148  0.76266259  0.32508943     0.18300
N572        N  0.74954810  0.82574268  0.26736237     0.75900
H573        H  0.74879952  0.85299922  0.30932598     0.09800
C574        C  0.78025196  0.85257900  0.36910655     0.03500
C575        C  0.77937930  0.87167762  0.38750855    -0.05200
C576        C  0.75628900  0.88238090  0.39551670    -0.23600
C577        C  0.73369987  0.87305549  0.38491341     0.12800
C578        C  0.73469426  0.85407012  0.36646384    -0.12700
N579        N  0.80418191  0.84284032  0.36098137     0.64500
H580        H  0.79693231  0.87824267  0.39542830     0.12300
N581        N  0.70959059  0.88326781  0.39181295     0.61100
H582        H  0.71731476  0.84751167  0.35814625     0.08500
O583        O  0.76748834  0.82497892  0.25148695    -0.40400
O584        O  0.73005737  0.83853483  0.26245272    -0.39500
O585        O  0.74861016  0.79097456  0.38266471    -0.39500
O586        O  0.78620659  0.77741690  0.37229008    -0.37200
O587        O  0.70163387  0.90294132  0.38097136    -0.38100
O588        O  0.69465061  0.87038764  0.40526915    -0.34300
O589        O  0.81519447  0.85260722  0.34213278    -0.35700
O590        O  0.81628875  0.82817025  0.37528387    -0.40000
C591        C  0.83967813  0.02951299  0.57794785    -0.13700
C592        C  0.84263257  0.01672451  0.55478597     0.16700
C593        C  0.82105795  0.01406680  0.53927551     0.03000
C594        C  0.79817967  0.02593410  0.54636712    -0.12200
C595        C  0.79584675  0.04016106  0.56876193    -0.03300
C596        C  0.81684829  0.04110724  0.58504981     0.02200
C597        C  0.86881596  0.00839259  0.54710609     0.09100
N598        N  0.82184108  0.00022797  0.51595980     0.65400
H599        H  0.78225678  0.02449451  0.53378159     0.18300
N600        N  0.81544203  0.05363903  0.60901403     0.75900
H601        H  0.85550962  0.03080226  0.59067340     0.09800
C602        C  0.88930834  0.02540551  0.54852015     0.03500
C603        C  0.91402159  0.01705190  0.54366017    -0.05200
C604        C  0.91918674  0.99218282  0.53588517    -0.23600
C605        C  0.89880341  0.97522949  0.53398222     0.12800
C606        C  0.87415164  0.98313827  0.54053974    -0.12700
N607        N  0.88529867  0.05158844  0.55405987     0.64500
H608        H  0.92914903  0.03070313  0.54449489     0.12300
N609        N  0.90281422  0.94981284  0.52578264     0.61100
H610        H  0.85935299  0.96923639  0.54090375     0.08500
O611        O  0.80222265  0.04436610  0.62666539    -0.40400
O612        O  0.83022327  0.07160660  0.61371013    -0.39500
O613        O  0.82201428  0.97642187  0.51674706    -0.39500
O614        O  0.81402541  0.01080852  0.49611046    -0.37200
O615        O  0.90312270  0.93226502  0.54191117    -0.38100
O616        O  0.90084322  0.94446486  0.50261878    -0.34300
O617        O  0.89560650  0.06137132  0.57309021    -0.35700
O618        O  0.87494912  0.06565282  0.53788587    -0.40000
C619        C  0.75241540  0.16379458  0.69126455    -0.13700
C620        C  0.75742452  0.17188494  0.66650610     0.16700
C621        C  0.76314431  0.19743993  0.66203814     0.03000
C622        C  0.76374963  0.21450092  0.68236597    -0.12200
C623        C  0.75852383  0.20645925  0.70721441    -0.03300
C624        C  0.75318066  0.18070287  0.71166825     0.02200
C625        C  0.75664291  0.15307226  0.64579585     0.09100
N626        N  0.76770240  0.20639684  0.63691764     0.65400
H627        H  0.76767639  0.23422602  0.67864211     0.18300
N628        N  0.74978087  0.17119644  0.73685781     0.75900
H629        H  0.74845126  0.14403747  0.69478610     0.09800
C630        C  0.77843069  0.13975716  0.63815624     0.03500
C631        C  0.77664335  0.11996830  0.62065795    -0.05200
C632        C  0.75324490  0.11278620  0.61059635    -0.23600
C633        C  0.73145573  0.12687730  0.61785410     0.12800
C634        C  0.73341100  0.14674665  0.63528090    -0.12700
N635        N  0.80238171  0.14549520  0.64879864     0.64500
H636        H  0.79371034  0.10988265  0.61537465     0.12300
N637        N  0.70700991  0.12082187  0.60856138     0.61100
H638        H  0.71652557  0.15684680  0.64121932     0.08500
O639        O  0.76646242  0.17507452  0.75325315    -0.40400
O640        O  0.73225305  0.15583785  0.74166979    -0.39500
O641        O  0.74974880  0.21556456  0.62434320    -0.39500
O642        O  0.79005536  0.20881700  0.62890516    -0.37200
O643        O  0.69325228  0.10556727  0.62069397    -0.38100
O644        O  0.69757900  0.13389536  0.59104830    -0.34300
O645        O  0.80863277  0.13559453  0.66953519    -0.35700
O646        O  0.81869027  0.15698431  0.63567877    -0.40000
C647        C  0.67475422  0.22699970  0.79925750    -0.13700
C648        C  0.67684218  0.24262078  0.82048668     0.16700
C649        C  0.69785910  0.25848888  0.82262440     0.03000
C650        C  0.71659329  0.25829013  0.80381765    -0.12200
C651        C  0.71489062  0.24255274  0.78239433    -0.03300
C652        C  0.69335709  0.22689469  0.78015048     0.02200
C653        C  0.65751079  0.24151632  0.84083354     0.09100
N654        N  0.70028726  0.27512068  0.84375575     0.65400
H655        H  0.73267870  0.27050072  0.80626487     0.18300
N656        N  0.68980338  0.21090223  0.75868661     0.75900
H657        H  0.65856226  0.21473745  0.79754410     0.09800
C658        C  0.63280202  0.25050700  0.83703138     0.03500
C659        C  0.61545258  0.25056345  0.85715779    -0.05200
C660        C  0.62215030  0.24113812  0.88098451    -0.23600
C661        C  0.64657399  0.23126560  0.88453994     0.12800
C662        C  0.66410813  0.23171718  0.86454329    -0.12700
N663        N  0.62529986  0.26025889  0.81304709     0.64500
H664        H  0.59667158  0.25811520  0.85419755     0.12300
N665        N  0.65423815  0.22205341  0.90868679     0.61100
H666        H  0.68304917  0.22463185  0.86757870     0.08500
O667        O  0.68411732  0.22057758  0.73767023    -0.40400
O668        O  0.68726891  0.18742563  0.76185508    -0.39500
O669        O  0.71564968  0.26988676  0.86107711    -0.39500
O670        O  0.68981984  0.29657142  0.84332793    -0.37200
O671        O  0.65345520  0.19869020  0.91329080    -0.38100
O672        O  0.66501596  0.23667926  0.92395574    -0.34300
O673        O  0.61309148  0.24641137  0.79815352    -0.35700
O674        O  0.62667277  0.28366586  0.80883815    -0.40000
C675        C  0.81227802  0.31846573  0.76866255    -0.13700
C676        C  0.83619961  0.31249844  0.75888052     0.16700
C677        C  0.84000561  0.28919064  0.74657536     0.03000
C678        C  0.81970691  0.27270143  0.74330252    -0.12200
C679        C  0.79545271  0.27878433  0.75256305    -0.03300
C680        C  0.79195853  0.30192937  0.76567534     0.02200
C681        C  0.85598653  0.33214989  0.75872735     0.09100
N682        N  0.86454268  0.28183592  0.73778681     0.65400
H683        H  0.82310376  0.25483741  0.73383083     0.18300
N684        N  0.76771227  0.30960411  0.77501283     0.75900
H685        H  0.80912591  0.33655249  0.77780387     0.09800
C686        C  0.86134112  0.34558983  0.73640200     0.03500
C687        C  0.87949497  0.36459723  0.73646998    -0.05200
C688        C  0.89226772  0.37135183  0.75871947    -0.23600
C689        C  0.88691344  0.35762313  0.78116095     0.12800
C690        C  0.86891287  0.33817846  0.78092895    -0.12700
N691        N  0.84747749  0.34104632  0.71377551     0.64500
H692        H  0.88291498  0.37464041  0.71892938     0.12300
N693        N  0.89905030  0.36342788  0.80443292     0.61100
H694        H  0.86475926  0.32796196  0.79822771     0.08500
O695        O  0.75218792  0.31973167  0.76013932    -0.40400
O696        O  0.76375331  0.31076110  0.79856983    -0.39500
O697        O  0.88002252  0.27242862  0.75316508    -0.39500
O698        O  0.86909580  0.28053235  0.71434505    -0.37200
O699        O  0.88916655  0.37930097  0.81939034    -0.38100
O700        O  0.91733856  0.35003819  0.81172391    -0.34300
O701        O  0.82451841  0.34734659  0.71278181    -0.35700
O702        O  0.85898458  0.33466109  0.69373628    -0.40000
C703        C  0.34889292  0.26729538  0.14293566    -0.13700
C704        C  0.34983793  0.24754746  0.16074216     0.16700
C705        C  0.36923794  0.22922739  0.15842517     0.03000
C706        C  0.38685527  0.23081453  0.13851182    -0.12200
C707        C  0.38614685  0.25082569  0.12115787    -0.03300
C708        C  0.36687166  0.26913960  0.12335031     0.02200
C709        C  0.32951244  0.24543971  0.18045613     0.09100
N710        N  0.37185657  0.20940990  0.17664073     0.65400
H711        H  0.40176961  0.21678562  0.13712650     0.18300
N712        N  0.36439378  0.28876450  0.10491948     0.75900
H713        H  0.33361436  0.28094448  0.14372482     0.09800
C714        C  0.32176838  0.26647338  0.19515085     0.03500
C715        C  0.30138255  0.26427296  0.21211841    -0.05200
C716        C  0.28898540  0.24118401  0.21556060    -0.23600
C717        C  0.29660706  0.22015492  0.20099709     0.12800
C718        C  0.31656654  0.22247476  0.18351177    -0.12700
N719        N  0.33506395  0.28989527  0.19384009     0.64500
H720        H  0.29584918  0.28047876  0.22345623     0.12300
N721        N  0.28331244  0.19677743  0.20271551     0.61100
H722        H  0.32150270  0.20639862  0.17175370     0.08500
O723        O  0.36463858  0.31160639  0.11171501    -0.40400
O724        O  0.35894641  0.28326705  0.08239697    -0.39500
O725        O  0.37283664  0.18668191  0.16948050    -0.39500
O726        O  0.37584270  0.21471994  0.19952687    -0.37200
O727        O  0.26114761  0.19526551  0.19439508    -0.38100
O728        O  0.29463853  0.17702687  0.20978342    -0.34300
O729        O  0.32330185  0.31012768  0.18920097    -0.35700
O730        O  0.35796369  0.29077010  0.20003853    -0.40000
C731        C  0.19090273  0.31407148  0.23813573    -0.13700
C732        C  0.17060130  0.31095725  0.25492126     0.16700
C733        C  0.17069581  0.29040401  0.27181436     0.03000
C734        C  0.19097670  0.27325988  0.27149797    -0.12200
C735        C  0.21141862  0.27609870  0.25446720    -0.03300
C736        C  0.21122186  0.29710334  0.23779298     0.02200
C737        C  0.14999117  0.32995895  0.25465448     0.09100
N738        N  0.14996884  0.28621725  0.28878337     0.65400
H739        H  0.19038004  0.25739603  0.28439392     0.18300
N740        N  0.23158576  0.30187736  0.22056943     0.75900
H741        H  0.19110727  0.33005714  0.22532122     0.09800
C742        C  0.14753200  0.34822883  0.27383464     0.03500
C743        C  0.12945429  0.36747190  0.27161977    -0.05200
C744        C  0.11374197  0.36939373  0.25029838    -0.23600
C745        C  0.11576702  0.35033148  0.23157275     0.12800
C746        C  0.13382966  0.33099391  0.23387609    -0.12700
N747        N  0.16422111  0.34840677  0.29495185     0.64500
H748        H  0.12860335  0.38157177  0.28632347     0.12300
N749        N  0.09954339  0.34994159  0.21023358     0.61100
H750        H  0.13550538  0.31685840  0.21912422     0.08500
O751        O  0.24953139  0.31582791  0.22729665    -0.40400
O752        O  0.22954085  0.29582921  0.19759220    -0.39500
O753        O  0.13045507  0.27538248  0.28082708    -0.39500
O754        O  0.15302685  0.28872761  0.31229160    -0.37200
O755        O  0.10741507  0.35855398  0.18935565    -0.38100
O756        O  0.08063765  0.33557567  0.21061679    -0.34300
O757        O  0.18734195  0.35296017  0.29148946    -0.35700
O758        O  0.15532195  0.34806032  0.31719000    -0.40000
C759        C  0.13039526  0.98232780  0.45613357    -0.13700
C760        C  0.13387994  0.00204893  0.43874360     0.16700
C761        C  0.11249694  0.01313506  0.42758157     0.03000
C762        C  0.08818953  0.00508128  0.43463771    -0.12200
C763        C  0.08448667  0.98634441  0.45326519    -0.03300
C764        C  0.10612233  0.97434262  0.46337215     0.02200
C765        C  0.15987888  0.01160465  0.43344332     0.09100
N766        N  0.11509471  0.03417537  0.41081931     0.65400
H767        H  0.07212086  0.01489924  0.42673156     0.18300
N768        N  0.10389809  0.95435913  0.48139828     0.75900
H769        H  0.14671063  0.97335541  0.46453224     0.09800
C770        C  0.17467702  0.02183998  0.45297180     0.03500
C771        C  0.19939425  0.02989918  0.44774237    -0.05200
C772        C  0.20954061  0.02900687  0.42314506    -0.23600
C773        C  0.19488790  0.01845588  0.40359865     0.12800
C774        C  0.17024390  0.00995070  0.40892071    -0.12700
N775        N  0.16423830  0.02587575  0.47778319     0.64500
H776        H  0.21014516  0.03858096  0.46271138     0.12300
N777        N  0.20512348  0.01526576  0.37859238     0.61100
H778        H  0.15924717  0.00162473  0.39393404     0.08500
O779        O  0.11382151  0.95653468  0.50287228    -0.40400
O780        O  0.09615785  0.93306335  0.47430264    -0.39500
O781        O  0.10758488  0.03253563  0.38831156    -0.39500
O782        O  0.12208655  0.05525808  0.41931353    -0.37200
O783        O  0.22550286  0.00318148  0.37543674    -0.38100
O784        O  0.19198039  0.02080111  0.35958701    -0.34300
O785        O  0.17765366  0.02223266  0.49703202    -0.35700
O786        O  0.14304129  0.03660155  0.48034355    -0.40000
C787        C  0.24111533  0.11780326  0.34000191    -0.13700
C788        C  0.25562786  0.13914644  0.34549001     0.16700
C789        C  0.27007522  0.13941524  0.36773377     0.03000
C790        C  0.27024947  0.11813546  0.38357272    -0.12200
C791        C  0.25560389  0.09669820  0.37825289    -0.03300
C792        C  0.24096378  0.09669547  0.35604687     0.02200
C793        C  0.25527572  0.16078395  0.32758524     0.09100
N794        N  0.28346331  0.16159169  0.37524520     0.65400
H795        H  0.28104551  0.11891164  0.40082153     0.18300
N796        N  0.22646631  0.07518482  0.34900649     0.75900
H797        H  0.23006825  0.11739824  0.32286902     0.09800
C798        C  0.27687548  0.16804412  0.31364657     0.03500
C799        C  0.27514517  0.18749420  0.29569417    -0.05200
C800        C  0.25216169  0.20010270  0.29122620    -0.23600
C801        C  0.23079623  0.19332062  0.30601998     0.12800
C802        C  0.23256348  0.17379928  0.32383294    -0.12700
N803        N  0.30047430  0.15528335  0.31683989     0.64500
H804        H  0.29191295  0.19251585  0.28497793     0.12300
N805        N  0.20690069  0.20542376  0.30278167     0.61100
H806        H  0.21591120  0.16848204  0.33460573     0.08500
O807        O  0.23753421  0.05573440  0.34055499    -0.40400
O808        O  0.20285087  0.07721203  0.34696066    -0.39500
O809        O  0.27189440  0.18240156  0.37730845    -0.39500
O810        O  0.30567624  0.15970590  0.38341947    -0.37200
O811        O  0.19297009  0.19889929  0.28473759    -0.38100
O812        O  0.19793954  0.21913598  0.32025628    -0.34300
O813        O  0.30327112  0.13303048  0.30869920    -0.35700
O814        O  0.31950706  0.16749279  0.32395792    -0.40000
C815        C  0.98215400  0.43584488  0.88957747    -0.13700
C816        C  0.99385029  0.44513482  0.86758788     0.16700
C817        C  0.01373538  0.46240390  0.87007718     0.03000
C818        C  0.02015005  0.47167264  0.89411372    -0.12200
C819        C  0.00805339  0.46293810  0.91636727    -0.03300
C820        C  0.98928954  0.44406454  0.91376780     0.02200
C821        C  0.98302188  0.43889458  0.84234580     0.09100
N822        N  0.02761980  0.47054127  0.84824957     0.65400
H823        H  0.03442087  0.48613744  0.89523354     0.18300
N824        N  0.97628336  0.43386313  0.93528506     0.75900
H825        H  0.96677733  0.42257407  0.88793738     0.09800
C826        C  0.98064645  0.41374596  0.83407352     0.03500
C827        C  0.96681325  0.40826839  0.81224462    -0.05200
C828        C  0.95547526  0.42757187  0.79794524    -0.23600
C829        C  0.95863988  0.45289309  0.80569247     0.12800
C830        C  0.97246514  0.45828366  0.82761477    -0.12700
N831        N  0.99275478  0.39364386  0.84735666     0.64500
H832        H  0.96503203  0.38876734  0.80635628     0.12300
N833        N  0.94615457  0.47313770  0.79287960     0.61100
H834        H  0.97377591  0.47763315  0.83396436     0.08500
O835        O  0.98799682  0.41985520  0.95054957    -0.40400
O836        O  0.95252255  0.43510297  0.93656993    -0.39500
O837        O  0.02758505  0.49349094  0.84198535    -0.39500
O838        O  0.03976513  0.45468997  0.83501068    -0.37200
O839        O  0.92237139  0.47436173  0.79322791    -0.38100
O840        O  0.95868371  0.49182593  0.78507002    -0.34300
O841        O  0.97978387  0.37833663  0.86026173    -0.35700
O842        O  0.01588461  0.38923131  0.84346827    -0.40000
C843        C  0.97956859  0.55100794  0.16688375    -0.13700
C844        C  0.98246549  0.57219347  0.15114360     0.16700
C845        C  0.97349048  0.59579140  0.15978499     0.03000
C846        C  0.96144707  0.59773815  0.18350213    -0.12200
C847        C  0.95810843  0.57649762  0.19922310    -0.03300
C848        C  0.96741559  0.55285254  0.19059624     0.02200
C849        C  0.99260583  0.56861122  0.12488968     0.09100
N850        N  0.97695149  0.61805234  0.14487237     0.65400
H851        H  0.95490162  0.61614395  0.18973819     0.18300
N852        N  0.96314855  0.53020621  0.20472043     0.75900
H853        H  0.98581467  0.53263504  0.16019461     0.09800
C854        C  0.01643178  0.55731180  0.11997813     0.03500
C855        C  0.02195769  0.54835730  0.09536016    -0.05200
C856        C  0.00539285  0.55220967  0.07502082    -0.23600
C857        C  0.98309853  0.56647157  0.07966992     0.12800
C858        C  0.97668926  0.57378638  0.10447318    -0.12700
N859        N  0.03516495  0.55498065  0.13948896     0.64500
H860        H  0.03917148  0.53772288  0.09215645     0.12300
N861        N  0.96595002  0.57249951  0.05980749     0.61100
H862        H  0.95860861  0.58284923  0.10794598     0.08500
O863        O  0.98162675  0.51665400  0.21121389    -0.40400
O864        O  0.94108578  0.52154018  0.20669233    -0.39500
O865        O  0.95803499  0.62995287  0.13669683    -0.39500
O866        O  0.99862115  0.62759970  0.14270452    -0.37200
O867        O  0.97235381  0.58821866  0.04301223    -0.38100
O868        O  0.94316997  0.56589033  0.06161920    -0.34300
O869        O  0.05489274  0.54206499  0.13557028    -0.35700
O870        O  0.03414054  0.56882809  0.15892620    -0.40000
C871        C  0.00544344  0.46350366  0.12531368    -0.13700
C872        C  0.02647972  0.44734207  0.12714080     0.16700
C873        C  0.03702965  0.43745132  0.10456857     0.03000
C874        C  0.02725858  0.44452709  0.08094688    -0.12200
C875        C  0.00694731  0.46167140  0.07889217    -0.03300
C876        C  0.99552205  0.47052538  0.10164933     0.02200
C877        C  0.03669924  0.44021726  0.15261960     0.09100
N878        N  0.05869230  0.42128706  0.10523409     0.65400
H879        H  0.03656615  0.43741759  0.06402537     0.18300
N880        N  0.97376180  0.48654936  0.10123211     0.75900
H881        H  0.99651411  0.47064159  0.14242824     0.09800
C882        C  0.04490489  0.45853809  0.17004502     0.03500
C883        C  0.05458589  0.45120166  0.19364767    -0.05200
C884        C  0.05667157  0.42560202  0.20051865    -0.23600
C885        C  0.04772352  0.40717246  0.18331556     0.12800
C886        C  0.03810470  0.41469087  0.15966919    -0.12700
N887        N  0.04552555  0.48458139  0.16318100     0.64500
H888        H  0.06152271  0.46567169  0.20625115     0.12300
N889        N  0.04706982  0.38089849  0.18987668     0.61100
H890        H  0.03109706  0.40046643  0.14683676     0.08500
O891        O  0.97588238  0.50956701  0.10690016    -0.40400
O892        O  0.95214783  0.47671231  0.10126529    -0.39500
O893        O  0.05708108  0.39870133  0.09783546    -0.39500
O894        O  0.08001517  0.43037464  0.11025209    -0.37200
O895        O  0.03790171  0.37415331  0.21094093    -0.38100
O896        O  0.05145474  0.36437242  0.17315091    -0.34300
O897        O  0.03029069  0.49994933  0.17344105    -0.35700
O898        O  0.06414375  0.49279750  0.15068707    -0.40000
C899        C  0.18056033  0.56257874  0.01730271    -0.13700
C900        C  0.16259869  0.58189224  0.02023453     0.16700
C901        C  0.16960946  0.60489961  0.03118597     0.03000
C902        C  0.19387625  0.60762815  0.04086815    -0.12200
C903        C  0.21162461  0.58771634  0.03962691    -0.03300
C904        C  0.20500531  0.56530153  0.02673735     0.02200
C905        C  0.13576362  0.57602574  0.01637284     0.09100
N906        N  0.15185745  0.62524766  0.03341686     0.65400
H907        H  0.19858186  0.62529620  0.04996778     0.18300
N908        N  0.22206254  0.54440163  0.02472271     0.75900
H909        H  0.17510473  0.54470292  0.00904883     0.09800
C910        C  0.12558566  0.57340229  0.99207237     0.03500
C911        C  0.10095925  0.56433917  0.98938697    -0.05200
C912        C  0.08643173  0.55780992  0.01075904    -0.23600
C913        C  0.09629401  0.56166656  0.03505050     0.12800
C914        C  0.12081031  0.57072600  0.03770591    -0.12700
N915        N  0.14047636  0.57880421  0.97007364     0.64500
H916        H  0.09378706  0.56088579  0.97058510     0.12300
N917        N  0.08157386  0.55619703  0.05712951     0.61100
H918        H  0.12853233  0.57287060  0.05649211     0.08500
O919        O  0.23365559  0.54036159  0.00413357    -0.40400
O920        O  0.22240671  0.52785279  0.04189588    -0.39500
O921        O  0.14486094  0.63296092  0.05497527    -0.39500
O922        O  0.14264163  0.63511375  0.01381682    -0.37200
O923        O  0.06330098  0.57045604  0.06298551    -0.38100
O924        O  0.08866406  0.53930156  0.07236232    -0.34300
O925        O  0.14970905  0.56097731  0.95705606    -0.35700
O926        O  0.14565009  0.60136700  0.96447644    -0.40000
C927        C  0.89485730  0.43810957  0.02406489    -0.13700
C928        C  0.87397760  0.44388184  0.00902567     0.16700
C929        C  0.87782983  0.45644805  0.98585559     0.03000
C930        C  0.90217497  0.46394878  0.97863107    -0.12200
C931        C  0.92301709  0.45947934  0.99432032    -0.03300
C932        C  0.91918547  0.44580958  0.01703106     0.02200
C933        C  0.84827910  0.43950856  0.01952028     0.09100
N934        N  0.85706937  0.46235475  0.96983182     0.65400
H935        H  0.90448531  0.47448204  0.96119760     0.18300
N936        N  0.93939475  0.44104186  0.03405898     0.75900
H937        H  0.89207232  0.42874528  0.04210723     0.09800
C938        C  0.84015870  0.41509934  0.02604910     0.03500
C939        C  0.81753487  0.41190345  0.03955880    -0.05200
C940        C  0.80256668  0.43274303  0.04685872    -0.23600
C941        C  0.81067880  0.45730674  0.04020045     0.12800
C942        C  0.83320078  0.46037586  0.02627723    -0.12700
N943        N  0.85469225  0.39337553  0.01890595     0.64500
H944        H  0.81155903  0.39291086  0.04422105     0.12300
N945        N  0.79764497  0.47932323  0.04932636     0.61100
H946        H  0.83980962  0.47927471  0.02210333     0.08500
O947        O  0.95174816  0.42067337  0.03236812    -0.40400
O948        O  0.94153143  0.45459624  0.05353093    -0.39500
O949        O  0.85210948  0.48507322  0.96455444    -0.39500
O950        O  0.84587028  0.44487071  0.95834041    -0.37200
O951        O  0.79447842  0.48242026  0.07283382    -0.38100
O952        O  0.79344078  0.49754572  0.03454304    -0.34300
O953        O  0.86488164  0.37988112  0.03565336    -0.35700
O954        O  0.85514579  0.38620749  0.99613425    -0.40000
C955        C  0.95618654  0.11106674  0.43823031    -0.13700
C956        C  0.97586041  0.12783784  0.43281074     0.16700
C957        C  0.00098844  0.11923439  0.43495978     0.03000
C958        C  0.00592826  0.09439448  0.44310132    -0.12200
C959        C  0.98609794  0.07793176  0.44922285    -0.03300
C960        C  0.96108042  0.08642247  0.44625304     0.02200
C961        C  0.96923214  0.15442720  0.42637119     0.09100
N962        N  0.02160784  0.13559570  0.42931283     0.65400
H963        H  0.02527531  0.08840405  0.44588726     0.18300
N964        N  0.94029125  0.07026719  0.45160665     0.75900
H965        H  0.93676508  0.11737640  0.43696143     0.09800
C966        C  0.95243652  0.15964387  0.40661721     0.03500
C967        C  0.94270614  0.18399257  0.40356372    -0.05200
C968        C  0.94917450  0.20401215  0.41984044    -0.23600
C969        C  0.96674888  0.19889714  0.43925134     0.12800
C970        C  0.97658154  0.17429126  0.44227589    -0.12700
N971        N  0.94466991  0.14018600  0.38965044     0.64500
H972        H  0.92967163  0.18693001  0.38830346     0.12300
N973        N  0.97436084  0.21803142  0.45655450     0.61100
H974        H  0.98908161  0.17044887  0.45789428     0.08500
O975        O  0.93096500  0.05775742  0.43371205    -0.40400
O976        O  0.92746361  0.07380559  0.47155611    -0.39500
O977        O  0.03592676  0.14273926  0.44679327    -0.39500
O978        O  0.02770519  0.13978026  0.40656765    -0.37200
O979        O  0.96089194  0.22253093  0.47588035    -0.38100
O980        O  0.99683090  0.22574381  0.45583493    -0.34300
O981        O  0.92176218  0.13391709  0.38881029    -0.35700
O982        O  0.95999805  0.13167114  0.37329671    -0.40000
C983        C  0.65238803  0.13978882  0.27313989    -0.13700
C984        C  0.65411939  0.15506696  0.25137813     0.16700
C985        C  0.63832783  0.14952842  0.23069614     0.03000
C986        C  0.62194041  0.12886884  0.23189839    -0.12200
C987        C  0.62007013  0.11387110  0.25370919    -0.03300
C988        C  0.63538827  0.11957552  0.27457291     0.02200
C989        C  0.67382033  0.17522725  0.24973879     0.09100
N990        N  0.63814295  0.16511075  0.20857213     0.65400
H991        H  0.60995674  0.12501905  0.21588059     0.18300
N992        N  0.63497665  0.10413864  0.29676554     0.75900
H993        H  0.66491837  0.14296227  0.28885226     0.09800
C994        C  0.67814742  0.19227032  0.26987126     0.03500
C995        C  0.69796147  0.20972556  0.26816640    -0.05200
C996        C  0.71308943  0.21130983  0.24630934    -0.23600
C997        C  0.70887612  0.19442341  0.22623945     0.12800
C998        C  0.68965465  0.17643323  0.22822041    -0.12700
N999        N  0.66202591  0.19277908  0.29174534     0.64500
H1000       H  0.70095087  0.22277521  0.28363608     0.12300
N1001       N  0.72487921  0.19442654  0.20429562     0.61100
H1002       H  0.68756255  0.16288651  0.21304722     0.08500
O1003       O  0.62713384  0.11315530  0.31752030    -0.40400
O1004       O  0.64486090  0.08240834  0.29621502    -0.39500
O1005       O  0.64188515  0.15539593  0.18703705    -0.39500
O1006       O  0.63120931  0.18789241  0.21022653    -0.37200
O1007       O  0.74703482  0.18574280  0.20565962    -0.38100
O1008       O  0.71597370  0.20021278  0.18301319    -0.34300
O1009       O  0.67121553  0.18969850  0.31346546    -0.35700
O1010       O  0.63921421  0.19928972  0.28964259    -0.40000
C1011       C  0.73666264  0.34432787  0.12726995    -0.13700
C1012       C  0.75414326  0.34429562  0.14713405     0.16700
C1013       C  0.77296796  0.36314132  0.14735832     0.03000
C1014       C  0.77379810  0.38146673  0.12820397    -0.12200
C1015       C  0.75579886  0.38190084  0.10897779    -0.03300
C1016       C  0.73729585  0.36294522  0.10837359     0.02200
C1017       C  0.75325803  0.32375711  0.16658041     0.09100
N1018       N  0.79073993  0.36459707  0.16746313     0.65400
H1019       H  0.78803725  0.39605508  0.12890630     0.18300
N1020       N  0.71998805  0.36153421  0.08787472     0.75900
H1021       H  0.72277835  0.32945746  0.12606079     0.09800
C1022       C  0.73046195  0.31688629  0.17885981     0.03500
C1023       C  0.73009771  0.29660054  0.19599400    -0.05200
C1024       C  0.75230677  0.28351255  0.20203078    -0.23600
C1025       C  0.77505349  0.29026131  0.18976698     0.12800
C1026       C  0.77528262  0.30998500  0.17205166    -0.12700
N1027       N  0.70785368  0.33125860  0.17526626     0.64500
H1028       H  0.71262521  0.29200525  0.20573018     0.12300
N1029       N  0.79794051  0.27673035  0.19456836     0.61100
H1030       H  0.79274982  0.31424933  0.16218313     0.08500
O1031       O  0.69669275  0.36470151  0.09191926    -0.40400
O1032       O  0.72756322  0.35380430  0.06650498    -0.39500
O1033       O  0.81403616  0.36255000  0.16269761    -0.39500
O1034       O  0.78347466  0.37147487  0.18921935    -0.37200
O1035       O  0.79987925  0.25375753  0.18844418    -0.38100
O1036       O  0.81694626  0.28824554  0.20280051    -0.34300
O1037       O  0.68816057  0.32055572  0.16756745    -0.35700
O1038       O  0.70679145  0.35399705  0.18238382    -0.40000
C1039       C  0.86617582  0.23660615  0.33507132    -0.13700
C1040       C  0.84865974  0.25642019  0.33564927     0.16700
C1041       C  0.85108168  0.27564925  0.35376417     0.03000
C1042       C  0.87078354  0.27465639  0.37123706    -0.12200
C1043       C  0.88831437  0.25452992  0.37115709    -0.03300
C1044       C  0.88599610  0.23550289  0.35238219     0.02200
C1045       C  0.82775063  0.25631376  0.31735330     0.09100
N1046       N  0.83320847  0.29589963  0.35507892     0.65400
H1047       H  0.87186212  0.28942688  0.38536151     0.18300
N1048       N  0.90363660  0.21505831  0.35025836     0.75900
H1049       H  0.86449544  0.22190096  0.32092469     0.09800
C1050       C  0.83028240  0.26785088  0.29353569     0.03500
C1051       C  0.81088105  0.26586441  0.27588654    -0.05200
C1052       C  0.78874350  0.25219599  0.28136427    -0.23600
C1053       C  0.78633654  0.24066889  0.30548666     0.12800
C1054       C  0.80575115  0.24291605  0.32316398    -0.12700
N1055       N  0.85280100  0.28103692  0.28676087     0.64500
H1056       H  0.81347652  0.27475287  0.25759475     0.12300
N1057       N  0.76440457  0.22663679  0.31248117     0.61100
H1058       H  0.80382005  0.23379038  0.34143331     0.08500
O1059       O  0.92585893  0.21930806  0.34266266    -0.40400
O1060       O  0.89587076  0.19258803  0.35136195    -0.39500
O1061       O  0.81383469  0.29383474  0.36897556    -0.39500
O1062       O  0.83852580  0.31699768  0.34536707    -0.37200
O1063       O  0.76410282  0.20305654  0.30903633    -0.38100
O1064       O  0.74763290  0.23681877  0.32624912    -0.34300
O1065       O  0.86942466  0.27017640  0.27333934    -0.35700
O1066       O  0.85418392  0.30450609  0.29057001    -0.40000
C1067       C  0.02134675  0.55553008  0.82534052    -0.13700
C1068       C  0.01703448  0.57594417  0.84202773     0.16700
C1069       C  0.02561560  0.60012767  0.83482831     0.03000
C1070       C  0.03953473  0.60329492  0.81224317    -0.12200
C1071       C  0.04481663  0.58271346  0.79608538    -0.03300
C1072       C  0.03523926  0.55877969  0.80267355     0.02200
C1073       C  0.00732361  0.57056771  0.86829608     0.09100
N1074       N  0.01999365  0.62185975  0.85001711     0.65400
H1075       H  0.04605424  0.62184780  0.80731329     0.18300
N1076       N  0.04125903  0.53693091  0.78784218     0.75900
H1077       H  0.01539137  0.53736522  0.83040506     0.09800
C1078       C  0.98622339  0.55497339  0.87294760     0.03500
C1079       C  0.98099875  0.54608158  0.89757674    -0.05200
C1080       C  0.99594700  0.55313669  0.91822109    -0.23600
C1081       C  0.01597627  0.57032060  0.91374737     0.12800
C1082       C  0.02166121  0.57836979  0.88904736    -0.12700
N1083       N  0.96992548  0.54795687  0.85279510     0.64500
H1084       H  0.96544707  0.53320131  0.90045328     0.12300
N1085       N  0.03205436  0.57840635  0.93372567     0.61100
H1086       H  0.03817411  0.58990398  0.88600582     0.08500
O1087       O  0.02397658  0.52522283  0.77667575    -0.40400
O1088       O  0.06294696  0.52712127  0.78928353    -0.39500
O1089       O  0.03766184  0.63529543  0.85831603    -0.39500
O1090       O  0.99755312  0.62980843  0.85167134    -0.37200
O1091       O  0.02435214  0.59482180  0.94934924    -0.38100
O1092       O  0.05473506  0.57109189  0.93423778    -0.34300
O1093       O  0.96719346  0.52497777  0.84722712    -0.35700
O1094       O  0.95564446  0.56432754  0.84303853    -0.40000
C1095       C  0.17201518  0.97877621  0.54480057    -0.13700
C1096       C  0.15582816  0.98178946  0.56584724     0.16700
C1097       C  0.16432794  0.97415986  0.58979115     0.03000
C1098       C  0.18802084  0.96257182  0.59218475    -0.12200
C1099       C  0.20393033  0.95854262  0.57104047    -0.03300
C1100       C  0.19598064  0.96747719  0.54720973     0.02200
C1101       C  0.12886220  0.98860714  0.56173260     0.09100
N1102       N  0.14880073  0.97760342  0.61179450     0.65400
H1103       H  0.19384318  0.95632255  0.61075991     0.18300
N1104       N  0.21098236  0.96329753  0.52497305     0.75900
H1105       H  0.16537763  0.98381647  0.52616267     0.09800
C1106       C  0.12139347  0.01248493  0.55262619     0.03500
C1107       C  0.09671229  0.01604557  0.54359388    -0.05200
C1108       C  0.07887580  0.99640514  0.54424914    -0.23600
C1109       C  0.08603758  0.97313246  0.55542016     0.12800
C1110       C  0.11081700  0.96950435  0.56379582    -0.12700
N1111       N  0.13858198  0.03325090  0.55276473     0.64500
H1112       H  0.09160750  0.03412169  0.53547054     0.12300
N1113       N  0.06955096  0.95188883  0.55561934     0.61100
H1114       H  0.11641503  0.95103570  0.57066089     0.08500
O1115       O  0.22386292  0.98111539  0.51579525    -0.40400
O1116       O  0.20849714  0.94313387  0.51254079    -0.39500
O1117       O  0.13989094  0.95865295  0.62318761    -0.39500
O1118       O  0.14698871  0.99917454  0.62181917    -0.37200
O1119       O  0.05208805  0.95066576  0.57197473    -0.38100
O1120       O  0.07590003  0.93225341  0.54356320    -0.34300
O1121       O  0.14040201  0.04757642  0.53377329    -0.35700
O1122       O  0.14909272  0.03948149  0.57313461    -0.40000
C1123       C  0.13873194  0.66278288  0.73531334    -0.13700
C1124       C  0.15237706  0.66563850  0.75772080     0.16700
C1125       C  0.14677249  0.64977661  0.77852765     0.03000
C1126       C  0.12770490  0.63162946  0.77646934    -0.12200
C1127       C  0.11367422  0.62917370  0.75421738    -0.03300
C1128       C  0.11930484  0.64504915  0.73341478     0.02200
C1129       C  0.17198962  0.68562779  0.75872112     0.09100
N1130       N  0.15957592  0.65238217  0.80210342     0.65400
H1131       H  0.12360722  0.61955915  0.79253796     0.18300
N1132       N  0.10461378  0.64449804  0.71080124     0.75900
H1133       H  0.14281082  0.67495525  0.71931592     0.09800
C1134       C  0.19746423  0.68014042  0.76418812     0.03500
C1135       C  0.21517202  0.69972791  0.76428616    -0.05200
C1136       C  0.20839991  0.72462419  0.75789535    -0.23600
C1137       C  0.18294662  0.73004697  0.75252671     0.12800
C1138       C  0.16504334  0.71066491  0.75317295    -0.12700
N1139       N  0.20601818  0.65469277  0.76798912     0.64500
H1140       H  0.23472639  0.69511083  0.76794078     0.12300
N1141       N  0.17483897  0.75518630  0.74693265     0.61100
H1142       H  0.14553150  0.71517055  0.74913555     0.08500
O1143       O  0.11543617  0.64527727  0.68942845    -0.40400
O1144       O  0.08099393  0.64741989  0.71216385    -0.39500
O1145       O  0.15833282  0.67299670  0.81404688    -0.39500
O1146       O  0.16886543  0.63317121  0.81273859    -0.37200
O1147       O  0.17099866  0.76151005  0.72427632    -0.38100
O1148       O  0.16721724  0.76938040  0.76463494    -0.34300
O1149       O  0.20115621  0.63791787  0.75181278    -0.35700
O1150       O  0.22146815  0.64979209  0.78534857    -0.40000
C1151       C  0.26921677  0.82274073  0.68271505    -0.13700
C1152       C  0.24772879  0.83796751  0.67925074     0.16700
C1153       C  0.22594555  0.83296919  0.69420126     0.03000
C1154       C  0.22592805  0.81272207  0.71140830    -0.12200
C1155       C  0.24769716  0.79812523  0.71524613    -0.03300
C1156       C  0.26959751  0.80348616  0.70085372     0.02200
C1157       C  0.24783279  0.85747980  0.65867452     0.09100
N1158       N  0.20408902  0.84891322  0.69298593     0.65400
H1159       H  0.20918553  0.80920329  0.72278355     0.18300
N1160       N  0.29221272  0.78899850  0.70381642     0.75900
H1161       H  0.28578186  0.82535153  0.67087565     0.09800
C1162       C  0.26887910  0.87331964  0.65405158     0.03500
C1163       C  0.26902458  0.88963558  0.63312593    -0.05200
C1164       C  0.24812423  0.89153987  0.61719767    -0.23600
C1165       C  0.22704225  0.87609072  0.62190198     0.12800
C1166       C  0.22727365  0.85896720  0.64209694    -0.12700
N1167       N  0.28984548  0.87384548  0.67089804     0.64500
H1168       H  0.28514538  0.90178892  0.63001026     0.12300
N1169       N  0.20562244  0.87685682  0.60571867     0.61100
H1170       H  0.21142402  0.84634373  0.64440954     0.08500
O1171       O  0.31180843  0.79944228  0.71209604    -0.40400
O1172       O  0.29359552  0.76690248  0.69495109    -0.39500
O1173       O  0.18259425  0.83938489  0.68974421    -0.39500
O1174       O  0.20591432  0.87221124  0.69762840    -0.37200
O1175       O  0.20675364  0.86665709  0.58415524    -0.38100
O1176       O  0.18495841  0.88584220  0.61376963    -0.34300
O1177       O  0.31200066  0.87100725  0.66234374    -0.35700
O1178       O  0.28651155  0.88011393  0.69373241    -0.40000
C1179       C  0.31263291  0.73921768  0.82255274    -0.13700
C1180       C  0.33442096  0.75257372  0.81604498     0.16700
C1181       C  0.33497479  0.76700798  0.79375839     0.03000
C1182       C  0.31354808  0.76834875  0.77855684    -0.12200
C1183       C  0.29132878  0.75528644  0.78509569    -0.03300
C1184       C  0.29120487  0.74031584  0.80735725     0.02200
C1185       C  0.35580355  0.75232738  0.83365251     0.09100
N1186       N  0.35718267  0.78039528  0.78636773     0.65400
H1187       H  0.31442016  0.77970306  0.76154136     0.18300
N1188       N  0.26939462  0.72657544  0.81528617     0.75900
H1189       H  0.31213609  0.72816046  0.83980928     0.09800
C1190       C  0.35718099  0.77034962  0.85304659     0.03500
C1191       C  0.37657191  0.76894819  0.87067144    -0.05200
C1192       C  0.39481017  0.74951873  0.86962444    -0.23600
C1193       C  0.39347313  0.73155648  0.84979691     0.12800
C1194       C  0.37403117  0.73314727  0.83203676    -0.12700
N1195       N  0.33844740  0.78972311  0.85554845     0.64500
H1196       H  0.37685559  0.78287080  0.88561331     0.12300
N1197       N  0.41165628  0.71168931  0.84724281     0.61100
H1198       H  0.37296553  0.71918528  0.81711413     0.08500
O1199       O  0.25445167  0.73614029  0.83141447    -0.40400
O1200       O  0.26764701  0.70344683  0.80986118    -0.39500
O1201       O  0.37258015  0.77039186  0.77095334    -0.39500
O1202       O  0.35923391  0.80349232  0.79178436    -0.37200
O1203       O  0.40654013  0.68993481  0.85550890    -0.38100
O1204       O  0.43065498  0.71470006  0.83300651    -0.34300
O1205       O  0.31896382  0.78582650  0.86886425    -0.35700
O1206       O  0.34306292  0.81172022  0.84765968    -0.40000
C1207       C  0.55728896  0.87880577  0.05545826    -0.13700
C1208       C  0.56498084  0.86410911  0.03478687     0.16700
C1209       C  0.56576102  0.87509299  0.01053718     0.03000
C1210       C  0.55795379  0.90033042  0.00723127    -0.12200
C1211       C  0.54893312  0.91477546  0.02783523    -0.03300
C1212       C  0.54905756  0.90376216  0.05226603     0.02200
C1213       C  0.57107895  0.83709974  0.03925217     0.09100
N1214       N  0.57293571  0.86036468  0.98897323     0.65400
H1215       H  0.55743386  0.90810244  0.98828202     0.18300
N1216       N  0.54086577  0.91749015  0.07418295     0.75900
H1217       H  0.55688393  0.87051875  0.07421514     0.09800
C1218       C  0.59595375  0.82917837  0.04391921     0.03500
C1219       C  0.60059610  0.80449555  0.05232682    -0.05200
C1220       C  0.58074909  0.78742473  0.05675632    -0.23600
C1221       C  0.55596712  0.79495566  0.05049203     0.12800
C1222       C  0.55136919  0.81965583  0.04186287    -0.12700
N1223       N  0.61649278  0.84647497  0.04184411     0.64500
H1224       H  0.61980104  0.79907792  0.05665134     0.12300
N1225       N  0.53502524  0.77858980  0.05476807     0.61100
H1226       H  0.53213717  0.82564866  0.03838217     0.08500
O1227       O  0.55637367  0.92096694  0.09177271    -0.40400
O1228       O  0.51757541  0.91919742  0.07910715    -0.39500
O1229       O  0.55645309  0.84835372  0.97692637    -0.39500
O1230       O  0.59590034  0.85809280  0.98287115    -0.37200
O1231       O  0.52349438  0.77914071  0.07577047    -0.38100
O1232       O  0.52560735  0.76680306  0.03642812    -0.34300
O1233       O  0.61895176  0.86364679  0.05817911    -0.35700
O1234       O  0.63414196  0.84223599  0.02618647    -0.40000
C1235       C  0.45225600  0.87051104  0.99616550    -0.13700
C1236       C  0.45120134  0.86607095  0.97001716     0.16700
C1237       C  0.45320664  0.88660431  0.95321440     0.03000
C1238       C  0.45750300  0.91092269  0.96261325    -0.12200
C1239       C  0.45984261  0.91529972  0.98869765    -0.03300
C1240       C  0.45648667  0.89494275  0.00560188     0.02200
C1241       C  0.44697963  0.84014329  0.96035132     0.09100
N1242       N  0.45264292  0.88271797  0.92646327     0.65400
H1243       H  0.46085703  0.92619117  0.94935524     0.18300
N1244       N  0.45954875  0.89840908  0.03219511     0.75900
H1245       H  0.45036418  0.85486235  0.00924635     0.09800
C1246       C  0.46659379  0.82210923  0.95866358     0.03500
C1247       C  0.46188461  0.79808778  0.94839595    -0.05200
C1248       C  0.43786252  0.79183657  0.93933638    -0.23600
C1249       C  0.41798325  0.80973646  0.94219579     0.12800
C1250       C  0.42285195  0.83364050  0.95235037    -0.12700
N1251       N  0.49169838  0.82852110  0.96574748     0.64500
H1252       H  0.47741934  0.78487239  0.94614165     0.12300
N1253       N  0.39262893  0.80389609  0.93521373     0.61100
H1254       H  0.40761933  0.84728595  0.95411061     0.08500
O1255       O  0.44090093  0.90504382  0.04570274    -0.40400
O1256       O  0.47967632  0.89130816  0.04261786    -0.39500
O1257       O  0.43409245  0.89059067  0.91390326    -0.39500
O1258       O  0.47204246  0.87454865  0.91502737    -0.37200
O1259       O  0.38167384  0.78511286  0.94498444    -0.38100
O1260       O  0.38007730  0.81933228  0.92212093    -0.34300
O1261       O  0.50190817  0.81749333  0.98418752    -0.35700
O1262       O  0.50482017  0.84247125  0.95148633    -0.40000
C1263       C  0.56755522  0.03067441  0.11621869    -0.13700
C1264       C  0.56685615  0.01253167  0.13534335     0.16700
C1265       C  0.55865515  0.98800121  0.12958315     0.03000
C1266       C  0.54880580  0.98279848  0.10553032    -0.12200
C1267       C  0.54823978  0.00137442  0.08646157    -0.03300
C1268       C  0.55881957  0.02537943  0.09189097     0.02200
C1269       C  0.57155641  0.02087327  0.16164335     0.09100
N1270       N  0.56128991  0.96803893  0.14758345     0.65400
H1271       H  0.54077475  0.96446256  0.10204475     0.18300
N1272       N  0.55860318  0.04559768  0.07397304     0.75900
H1273       H  0.57396062  0.04958507  0.12053874     0.09800
C1274       C  0.59539233  0.02946760  0.16915014     0.03500
C1275       C  0.59801272  0.04178705  0.19243843    -0.05200
C1276       C  0.57713323  0.04576226  0.20864103    -0.23600
C1277       C  0.55331036  0.03667390  0.20126141     0.12800
C1278       C  0.55077239  0.02447599  0.17789103    -0.12700
N1279       N  0.61696543  0.02631530  0.15301461     0.64500
H1280       H  0.61648986  0.04847104  0.19776769     0.12300
N1281       N  0.53113351  0.04169368  0.21607436     0.61100
H1282       H  0.53216314  0.01922301  0.17163226     0.08500
O1283       O  0.57361060  0.04491914  0.05529126    -0.40400
O1284       O  0.54854175  0.06638310  0.08016989    -0.39500
O1285       O  0.54665869  0.96677412  0.16648298    -0.39500
O1286       O  0.58057562  0.95400112  0.14662452    -0.37200
O1287       O  0.51964729  0.02368080  0.22664105    -0.38100
O1288       O  0.52057739  0.06305861  0.21467600    -0.34300
O1289       O  0.62639664  0.04520936  0.14195291    -0.35700
O1290       O  0.62864351  0.00549254  0.15271037    -0.40000
C1291       C  0.41498169  0.96876210  0.17143505    -0.13700
C1292       C  0.43942630  0.97398953  0.16251931     0.16700
C1293       C  0.46013816  0.96825433  0.17811396     0.03000
C1294       C  0.45621186  0.95727756  0.20193556    -0.12200
C1295       C  0.43191732  0.95102907  0.21039160    -0.03300
C1296       C  0.41106573  0.95743419  0.19515937     0.02200
C1297       C  0.44324810  0.98554291  0.13706641     0.09100
N1298       N  0.48541973  0.97236408  0.16954906     0.65400
H1299       H  0.47242796  0.95222377  0.21321495     0.18300
N1300       N  0.38579689  0.95335743  0.20391092     0.75900
H1301       H  0.39884343  0.97373292  0.16002222     0.09800
C1302       C  0.43424358  0.97381034  0.11503722     0.03500
C1303       C  0.44065801  0.98355000  0.09118480    -0.05200
C1304       C  0.45674783  0.00451985  0.08858990    -0.23600
C1305       C  0.46421175  0.01731345  0.11079927     0.12800
C1306       C  0.45723466  0.00786776  0.13465887    -0.12700
N1307       N  0.42060347  0.95062489  0.11647390     0.64500
H1308       H  0.43459881  0.97328625  0.07460717     0.12300
N1309       N  0.47979530  0.03921994  0.10968581     0.61100
H1310       H  0.46372602  0.01746119  0.15147501     0.08500
O1311       O  0.37133544  0.93909826  0.19168446    -0.40400
O1312       O  0.37698430  0.96650421  0.22189126    -0.39500
O1313       O  0.50031830  0.98476999  0.18314685    -0.39500
O1314       O  0.49366178  0.96121852  0.15000224    -0.37200
O1315       O  0.50329582  0.03675466  0.11231481    -0.38100
O1316       O  0.46984230  0.06069459  0.11287560    -0.34300
O1317       O  0.39778889  0.94999698  0.10996983    -0.35700
O1318       O  0.43219639  0.93025737  0.12094141    -0.40000
C1319       C  0.46409200  0.17737387  0.03655316    -0.13700
C1320       C  0.44347882  0.16263614  0.02903485     0.16700
C1321       C  0.41887731  0.17181589  0.03356890     0.03000
C1322       C  0.41518913  0.19481756  0.04622238    -0.12200
C1323       C  0.43570913  0.20931918  0.05432627    -0.03300
C1324       C  0.46040502  0.20058661  0.04905209     0.02200
C1325       C  0.44793875  0.13678295  0.01868575     0.09100
N1326       N  0.39744071  0.15805082  0.02516449     0.65400
H1327       H  0.39608066  0.20135341  0.04983289     0.18300
N1328       N  0.48182934  0.21398341  0.05807241     0.75900
H1329       H  0.48313007  0.17032735  0.03362214     0.09800
C1330       C  0.46179152  0.13274326  0.99615813     0.03500
C1331       C  0.46878512  0.10805816  0.98893514    -0.05200
C1332       C  0.46206182  0.08697682  0.00383607    -0.23600
C1333       C  0.44702758  0.09119605  0.02577959     0.12800
C1334       C  0.44019681  0.11584222  0.03292082    -0.12700
N1335       N  0.46918794  0.15366902  0.98072920     0.64500
H1336       H  0.48042008  0.10552821  0.97214555     0.12300
N1337       N  0.43995036  0.07089562  0.04209692     0.61100
H1338       H  0.42976010  0.11870735  0.05043815     0.08500
O1339       O  0.49440032  0.22770379  0.04311003    -0.40400
O1340       O  0.49029903  0.20919188  0.07978213    -0.39500
O1341       O  0.38434463  0.14572751  0.04089221    -0.39500
O1342       O  0.38925016  0.16166117  0.00312513    -0.37200
O1343       O  0.41953292  0.05941332  0.03841684    -0.38100
O1344       O  0.45129605  0.06793181  0.06274181    -0.34300
O1345       O  0.49197205  0.16038314  0.97998427    -0.35700
O1346       O  0.45258433  0.16752473  0.97077616    -0.40000
C1347       C  0.54468468  0.13234325  0.01156298    -0.13700
C1348       C  0.55825952  0.13274841  0.98861584     0.16700
C1349       C  0.56627674  0.10959664  0.97780252     0.03000
C1350       C  0.55797724  0.08681526  0.98840097    -0.12200
C1351       C  0.54275310  0.08634361  0.01033331    -0.03300
C1352       C  0.53719922  0.10946924  0.02267885     0.02200
C1353       C  0.56263796  0.15733302  0.97556646     0.09100
N1354       N  0.58274479  0.10890493  0.95607041     0.65400
H1355       H  0.56323135  0.06928130  0.97912284     0.18300
N1356       N  0.52324216  0.11032897  0.04594313     0.75900
H1357       H  0.53890022  0.14994585  0.02040063     0.09800
C1358       C  0.55601395  0.16106120  0.94989880     0.03500
C1359       C  0.56261679  0.18365760  0.93777352    -0.05200
C1360       C  0.57419176  0.20329390  0.95094863    -0.23600
C1361       C  0.57941736  0.20026113  0.97680979     0.12800
C1362       C  0.57396788  0.17725117  0.98882102    -0.12700
N1363       N  0.54213936  0.14246986  0.93604264     0.64500
H1364       H  0.55811820  0.18622027  0.91797519     0.12300
N1365       N  0.59108787  0.21999754  0.99082186     0.61100
H1366       H  0.57892774  0.17479991  0.00850858     0.08500
O1367       O  0.53425802  0.11703367  0.06587244    -0.40400
O1368       O  0.49947481  0.11060392  0.04547830    -0.39500
O1369       O  0.60229564  0.12239684  0.95544187    -0.39500
O1370       O  0.57930108  0.09290787  0.93874300    -0.37200
O1371       O  0.57758587  0.23687340  0.00112108    -0.38100
O1372       O  0.61412362  0.21826835  0.99634818    -0.34300
O1373       O  0.54714087  0.13852383  0.91296509    -0.35700
O1374       O  0.52298054  0.13219361  0.94587105    -0.40000
C1375       C  0.05395467  0.16121982  0.58106758    -0.13700
C1376       C  0.04115916  0.15540348  0.55882649     0.16700
C1377       C  0.03775628  0.17441657  0.54050321     0.03000
C1378       C  0.04797717  0.19857233  0.54422599    -0.12200
C1379       C  0.06188352  0.20418778  0.56601878    -0.03300
C1380       C  0.06404339  0.18533175  0.58501857     0.02200
C1381       C  0.03427801  0.12869384  0.55379670     0.09100
N1382       N  0.02590509  0.16878823  0.51705418     0.65400
H1383       H  0.04624394  0.21249019  0.52931143     0.18300
N1384       N  0.07649314  0.19023692  0.60842310     0.75900
H1385       H  0.05651388  0.14672186  0.59530169     0.09800
C1386       C  0.05306147  0.11112475  0.54668356     0.03500
C1387       C  0.04646643  0.08626702  0.54077425    -0.05200
C1388       C  0.02122442  0.07828776  0.54179926    -0.23600
C1389       C  0.00259595  0.09542727  0.55062940     0.12800
C1390       C  0.00920753  0.12053486  0.55631588    -0.12700
N1391       N  0.07878062  0.11872923  0.54395208     0.64500
H1392       H  0.06099900  0.07351210  0.53377010     0.12300
N1393       N  0.97672981  0.08812193  0.55227713     0.61100
H1394       H  0.99469062  0.13380449  0.56226123     0.08500
O1395       O  0.06821992  0.20733001  0.62299431    -0.40400
O1396       O  0.09352482  0.17542473  0.61605858    -0.39500
O1397       O  0.00261473  0.17290057  0.51450083    -0.39500
O1398       O  0.03929357  0.16335815  0.49792801    -0.37200
O1399       O  0.96872409  0.07687075  0.57178985    -0.38100
O1400       O  0.96126351  0.09596846  0.53605104    -0.34300
O1401       O  0.09487586  0.11174358  0.55994442    -0.35700
O1402       O  0.08544147  0.13246611  0.52557725    -0.40000
C1403       C  0.45210059  0.01342911  0.83668861    -0.13700
C1404       C  0.43306076  0.01283869  0.85536385     0.16700
C1405       C  0.40924621  0.02338758  0.84971170     0.03000
C1406       C  0.40538581  0.03541967  0.82642225    -0.12200
C1407       C  0.42469048  0.03689962  0.80804809    -0.03300
C1408       C  0.44812237  0.02511046  0.81320231     0.02200
C1409       C  0.43970426  0.00545364  0.88177213     0.09100
N1410       N  0.38884519  0.02228094  0.86760941     0.65400
H1411       H  0.38706613  0.04370867  0.82275570     0.18300
N1412       N  0.46873408  0.02638213  0.79562895     0.75900
H1413       H  0.47070736  0.00607500  0.84084983     0.09800
C1414       C  0.45247933  0.98274006  0.88752589     0.03500
C1415       C  0.46186361  0.97870152  0.91199667    -0.05200
C1416       C  0.45870721  0.99686501  0.93126067    -0.23600
C1417       C  0.44508828  0.01929749  0.92555231     0.12800
C1418       C  0.43599444  0.02326653  0.90107981    -0.12700
N1419       N  0.45645398  0.96378357  0.86861865     0.64500
H1420       H  0.47234883  0.96150186  0.91571435     0.12300
N1421       N  0.44209547  0.03935547  0.94351929     0.61100
H1422       H  0.42695086  0.04114773  0.89683438     0.08500
O1423       O  0.47350883  0.00783184  0.78134637    -0.40400
O1424       O  0.48420714  0.04434537  0.79693076    -0.39500
O1425       O  0.37828790  0.04237979  0.87514223    -0.39500
O1426       O  0.37930999  0.00123298  0.87333428    -0.37200
O1427       O  0.42663279  0.03692091  0.96165947    -0.38100
O1428       O  0.45025676  0.06107291  0.93810378    -0.34300
O1429       O  0.43808220  0.95085426  0.86107607    -0.35700
O1430       O  0.47861080  0.95755416  0.86215330    -0.40000
C1431       C  0.18480811  0.46583416  0.95091105    -0.13700
C1432       C  0.16675074  0.44659573  0.94951953     0.16700
C1433       C  0.17279059  0.42426685  0.93644350     0.03000
C1434       C  0.19634521  0.42159801  0.92463572    -0.12200
C1435       C  0.21438130  0.44107872  0.92503977    -0.03300
C1436       C  0.20838468  0.46346699  0.93858941     0.02200
C1437       C  0.14063224  0.45138078  0.95870729     0.09100
N1438       N  0.15496863  0.40419298  0.93473541     0.65400
H1439       H  0.20031171  0.40406635  0.91487523     0.18300
N1440       N  0.22507315  0.48460664  0.93867892     0.75900
H1441       H  0.18000258  0.48338851  0.96038015     0.09800
C1442       C  0.13484895  0.45482467  0.98455691     0.03500
C1443       C  0.11026043  0.46166641  0.99207682    -0.05200
C1444       C  0.09139782  0.46563029  0.97404290    -0.23600
C1445       C  0.09711899  0.46152790  0.94826877     0.12800
C1446       C  0.12147384  0.45420215  0.94084882    -0.12700
N1447       N  0.15396423  0.45226484  0.00321929     0.64500
H1448       H  0.10630524  0.46539833  0.01189295     0.12300
N1449       N  0.07861544  0.46569569  0.92929136     0.61100
H1450       H  0.12574313  0.45180852  0.92088755     0.08500
O1451       O  0.23175754  0.49405765  0.95946037    -0.40400
O1452       O  0.22896167  0.49672537  0.91845833    -0.39500
O1453       O  0.14398885  0.40003320  0.91409533    -0.39500
O1454       O  0.15280564  0.38861318  0.95267586    -0.37200
O1455       O  0.06664230  0.44710935  0.92068339    -0.38100
O1456       O  0.07852356  0.48631647  0.91733017    -0.34300
O1457       O  0.16306405  0.47168458  0.01342921    -0.35700
O1458       O  0.15965426  0.43066753  0.01154114    -0.40000
C1459       C  0.18782738  0.26409584  0.67524507    -0.13700
C1460       C  0.19395401  0.24912705  0.65416698     0.16700
C1461       C  0.21594034  0.23400943  0.65465797     0.03000
C1462       C  0.23089226  0.23366437  0.67642612    -0.12200
C1463       C  0.22471038  0.24854264  0.69770447    -0.03300
C1464       C  0.20271038  0.26377540  0.69701033     0.02200
C1465       C  0.17579773  0.24817972  0.63296165     0.09100
N1466       N  0.22376061  0.21961995  0.63296307     0.65400
H1467       H  0.24790617  0.22223469  0.67636145     0.18300
N1468       N  0.19425863  0.27777141  0.71870506     0.75900
H1469       H  0.17065036  0.27529293  0.67521046     0.09800
C1470       C  0.16252453  0.22592475  0.62727033     0.03500
C1471       C  0.14339382  0.22652475  0.60919199    -0.05200
C1472       C  0.13649091  0.24910844  0.59689349    -0.23600
C1473       C  0.15093550  0.27102568  0.60161719     0.12800
C1474       C  0.17019136  0.27037287  0.61963191    -0.12700
N1475       N  0.16685219  0.20302829  0.64102231     0.64500
H1476       H  0.13304024  0.20931588  0.60580278     0.12300
N1477       N  0.14607116  0.29427849  0.58882347     0.61100
H1478       H  0.18050369  0.28749817  0.62366337     0.08500
O1479       O  0.18847221  0.26622069  0.73881717    -0.40400
O1480       O  0.18847549  0.30081146  0.71649102    -0.39500
O1481       O  0.22717165  0.23053118  0.61198249    -0.39500
O1482       O  0.23060950  0.19689815  0.63548471    -0.37200
O1483       O  0.13396273  0.31162743  0.60002521    -0.38100
O1484       O  0.15748915  0.29903311  0.56831715    -0.34300
O1485       O  0.16247303  0.20232843  0.66453086    -0.35700
O1486       O  0.17101969  0.18268636  0.62920894    -0.40000
C1487       C  0.33912151  0.12458475  0.77582582    -0.13700
C1488       C  0.34215120  0.14359290  0.75756428     0.16700
C1489       C  0.36394831  0.14358927  0.74210696     0.03000
C1490       C  0.38171134  0.12413515  0.74440787    -0.12200
C1491       C  0.37874230  0.10479266  0.76244692    -0.03300
C1492       C  0.35719896  0.10529610  0.77845237     0.02200
C1493       C  0.32255237  0.16345053  0.75479171     0.09100
N1494       N  0.36880911  0.16378680  0.72472282     0.65400
H1495       H  0.39833496  0.12460275  0.73233723     0.18300
N1496       N  0.35289212  0.08598179  0.79682828     0.75900
H1497       H  0.32245228  0.12454443  0.78786809     0.09800
C1498       C  0.30899557  0.16638464  0.73213782     0.03500
C1499       C  0.29280856  0.18718946  0.72920484    -0.05200
C1500       C  0.28927225  0.20498762  0.74871115    -0.23600
C1501       C  0.30215040  0.20122964  0.77180031     0.12800
C1502       C  0.31870098  0.18073001  0.77449559    -0.12700
N1503       N  0.31112799  0.14814662  0.71217913     0.64500
H1504       H  0.28293274  0.18935111  0.71149232     0.12300
N1505       N  0.29845012  0.21775056  0.79290522     0.61100
H1506       H  0.32891431  0.17847859  0.79201676     0.08500
O1507       O  0.34010493  0.06684431  0.79103721    -0.40400
O1508       O  0.35822079  0.08996020  0.81968963    -0.39500
O1509       O  0.37105444  0.18605505  0.73289026    -0.39500
O1510       O  0.37450930  0.15896423  0.70197812    -0.37200
O1511       O  0.28020618  0.21408387  0.80795933    -0.38100
O1512       O  0.31554483  0.23308061  0.79882888    -0.34300
O1513       O  0.30652062  0.12520419  0.71664464    -0.35700
O1514       O  0.31425941  0.15531421  0.68959124    -0.40000
C1515       C  0.24743990  0.35114980  0.84645174    -0.13700
C1516       C  0.26433416  0.35222431  0.82594458     0.16700
C1517       C  0.28017793  0.37337849  0.82334860     0.03000
C1518       C  0.27924506  0.39272520  0.84148362    -0.12200
C1519       C  0.26250201  0.39155989  0.86227046    -0.03300
C1520       C  0.24647126  0.37034654  0.86463751     0.02200
C1521       C  0.26466967  0.33117014  0.80738126     0.09100
N1522       N  0.29751077  0.37532990  0.80256865     0.65400
H1523       H  0.29152600  0.40886237  0.83910789     0.18300
N1524       N  0.22963077  0.36747230  0.88575308     0.75900
H1525       H  0.23498538  0.33509794  0.84848207     0.09800
C1526       C  0.26958181  0.30616493  0.81508733     0.03500
C1527       C  0.26803164  0.28641147  0.79763276    -0.05200
C1528       C  0.26180931  0.29092513  0.77224057    -0.23600
C1529       C  0.25713054  0.31607018  0.76440986     0.12800
C1530       C  0.25831597  0.33583154  0.78210109    -0.12700
N1531       N  0.27638544  0.30055291  0.84059059     0.64500
H1532       H  0.27156250  0.26733948  0.80413807     0.12300
N1533       N  0.25209500  0.32203067  0.73851799     0.61100
H1534       H  0.25429004  0.35496852  0.77605867     0.08500
O1535       O  0.23839915  0.36300870  0.90741408    -0.40400
O1536       O  0.20629099  0.36504423  0.88205528    -0.39500
O1537       O  0.29273006  0.39014919  0.78452863    -0.39500
O1538       O  0.31921695  0.36564063  0.80425341    -0.37200
O1539       O  0.23347477  0.33586879  0.73306777    -0.38100
O1540       O  0.26832224  0.31685898  0.72162681    -0.34300
O1541       O  0.26131633  0.28849504  0.85466764    -0.35700
O1542       O  0.29880583  0.30384980  0.84758367    -0.40000
C1543       C  0.82270199  0.54104200  0.98372712    -0.13700
C1544       C  0.84045630  0.56052293  0.98433099     0.16700
C1545       C  0.83457713  0.58384882  0.97304806     0.03000
C1546       C  0.81182444  0.58694509  0.96022368    -0.12200
C1547       C  0.79459035  0.56696334  0.95799130    -0.03300
C1548       C  0.79997012  0.54396362  0.97062904     0.02200
C1549       C  0.86671986  0.55455526  0.99158948     0.09100
N1550       N  0.85217834  0.60418752  0.97343562     0.65400
H1551       H  0.80808308  0.60492900  0.95125480     0.18300
N1552       N  0.78366238  0.52269636  0.96873356     0.75900
H1553       H  0.82723287  0.52288554  0.99203097     0.09800
C1554       C  0.87372566  0.54873892  0.01653579     0.03500
C1555       C  0.89865982  0.54127592  0.02164123    -0.05200
C1556       C  0.91686985  0.53939665  0.00210011    -0.23600
C1557       C  0.90942976  0.54518115  0.97703231     0.12800
C1558       C  0.88471268  0.55272277  0.97218779    -0.12700
N1559       N  0.85573110  0.55027458  0.03677511     0.64500
H1560       H  0.90360893  0.53648141  0.04088772     0.12300
N1561       N  0.92612951  0.54212827  0.95584827     0.61100
H1562       H  0.87927851  0.55642334  0.95281059     0.08500
O1563       O  0.78931888  0.50488836  0.95381780    -0.40400
O1564       O  0.76661635  0.51949445  0.98521672    -0.39500
O1565       O  0.86552360  0.60880512  0.95409132    -0.39500
O1566       O  0.85177822  0.61962073  0.99162351    -0.37200
O1567       O  0.93830248  0.56097149  0.94787459    -0.38100
O1568       O  0.92356728  0.52324590  0.94154590    -0.34300
O1569       O  0.84652453  0.53033092  0.04600012    -0.35700
O1570       O  0.85185976  0.57111665  0.04775743    -0.40000
C1571       C  0.95662037  0.82880051  0.57397235    -0.13700
C1572       C  0.96498299  0.83438686  0.54946024     0.16700
C1573       C  0.96223750  0.81621062  0.53023479     0.03000
C1574       C  0.95147570  0.79261403  0.53589724    -0.12200
C1575       C  0.94256588  0.78703783  0.56045381    -0.03300
C1576       C  0.94553030  0.80549208  0.57970732     0.02200
C1577       C  0.97625771  0.85948956  0.54433285     0.09100
N1578       N  0.96873389  0.82215093  0.50460625     0.65400
H1579       H  0.94889410  0.77914213  0.52072447     0.18300
N1580       N  0.93775416  0.80086414  0.60531616     0.75900
H1581       H  0.95883913  0.84268583  0.58884622     0.09800
C1582       C  0.96093558  0.88107665  0.54234109     0.03500
C1583       C  0.97180620  0.90453620  0.53707446    -0.05200
C1584       C  0.99811218  0.90723266  0.53375322    -0.23600
C1585       C  0.01355893  0.88559574  0.53691199     0.12800
C1586       C  0.00250816  0.86202349  0.54216478    -0.12700
N1587       N  0.93415615  0.87928580  0.54498602     0.64500
H1588       H  0.95929840  0.92060796  0.53482972     0.12300
N1589       N  0.04039838  0.88713095  0.53529943     0.61100
H1590       H  0.01447462  0.84556135  0.54449853     0.08500
O1591       O  0.94775925  0.78310633  0.61765390    -0.40400
O1592       O  0.92369152  0.81659804  0.61667117    -0.39500
O1593       O  0.98666701  0.81065297  0.49367527    -0.39500
O1594       O  0.95457869  0.83650762  0.49196469    -0.37200
O1595       O  0.05323040  0.88383739  0.55501016    -0.38100
O1596       O  0.05118722  0.88606125  0.51393686    -0.34300
O1597       O  0.92390760  0.88199906  0.56647691    -0.35700
O1598       O  0.92060921  0.87784786  0.52556398    -0.40000
C1599       C  0.76633311  0.65356078  0.87189332    -0.13700
C1600       C  0.75433996  0.64930328  0.84878599     0.16700
C1601       C  0.74279107  0.62580407  0.84449921     0.03000
C1602       C  0.74277317  0.60731261  0.86348696    -0.12200
C1603       C  0.75445867  0.61160204  0.88683497    -0.03300
C1604       C  0.76664619  0.63497408  0.89079656     0.02200
C1605       C  0.75464725  0.66930383  0.82907666     0.09100
N1606       N  0.73064891  0.62062269  0.82106648     0.65400
H1607       H  0.73360057  0.58944977  0.85988412     0.18300
N1608       N  0.77892774  0.64044234  0.91408240     0.75900
H1609       H  0.77557201  0.67144082  0.87525264     0.09800
C1610       C  0.74261446  0.69274447  0.83309436     0.03500
C1611       C  0.74317273  0.71120769  0.81411172    -0.05200
C1612       C  0.75549268  0.70685332  0.79076018    -0.23600
C1613       C  0.76797480  0.68335952  0.78698924     0.12800
C1614       C  0.76752792  0.66501498  0.80617271    -0.12700
N1615       N  0.72911576  0.69779517  0.85611802     0.64500
H1616       H  0.73364222  0.72902308  0.81769064     0.12300
N1617       N  0.78044591  0.67732516  0.76360526     0.61100
H1618       H  0.77703111  0.64709729  0.80302937     0.08500
O1619       O  0.76627099  0.64913459  0.93249601    -0.40400
O1620       O  0.80270403  0.64085693  0.91476203    -0.39500
O1621       O  0.73987768  0.60434278  0.80613563    -0.39500
O1622       O  0.70943191  0.63039196  0.81646506    -0.37200
O1623       O  0.80349687  0.67125386  0.76355583    -0.38100
O1624       O  0.76757133  0.67356747  0.74402623    -0.34300
O1625       O  0.73686890  0.71459265  0.87103410    -0.35700
O1626       O  0.70780802  0.68790762  0.85990532    -0.40000
C1627       C  0.83104181  0.73885641  0.69416011    -0.13700
C1628       C  0.82241620  0.74572938  0.67016025     0.16700
C1629       C  0.79705467  0.75285912  0.66714500     0.03000
C1630       C  0.78067256  0.75306085  0.68811299    -0.12200
C1631       C  0.78917809  0.74613887  0.71226932    -0.03300
C1632       C  0.81477610  0.73918307  0.71527771     0.02200
C1633       C  0.84026836  0.74536053  0.64849600     0.09100
N1634       N  0.78775317  0.75998268  0.64288772     0.65400
H1635       H  0.76111324  0.75834407  0.68541354     0.18300
N1636       N  0.82485392  0.73367535  0.73972214     0.75900
H1637       H  0.85068225  0.73370054  0.69654835     0.09800
C1638       C  0.85720512  0.76528158  0.64444998     0.03500
C1639       C  0.87486191  0.76388253  0.62463462    -0.05200
C1640       C  0.87632612  0.74261227  0.60861198    -0.23600
C1641       C  0.85922825  0.72250749  0.61296683     0.12800
C1642       C  0.84131034  0.72420443  0.63263481    -0.12700
N1643       N  0.85678868  0.78700995  0.66049115     0.64500
H1644       H  0.88760448  0.77955758  0.62203883     0.12300
N1645       N  0.85996403  0.70001580  0.59803982     0.61100
H1646       H  0.82848589  0.70865882  0.63590783     0.08500
O1647       O  0.82319488  0.74991566  0.75715643    -0.40400
O1648       O  0.83866886  0.71445208  0.74276501    -0.39500
O1649       O  0.77608316  0.74410954  0.62967307    -0.39500
O1650       O  0.78828340  0.78283873  0.63617022    -0.37200
O1651       O  0.87370350  0.68173721  0.60478878    -0.38100
O1652       O  0.84370941  0.69671989  0.58111179    -0.34300
O1653       O  0.87290918  0.78910840  0.67774280    -0.35700
O1654       O  0.84294879  0.80563763  0.65502076    -0.40000
C1655       C  0.54658894  0.97173243  0.83634104    -0.13700
C1656       C  0.56678190  0.97580974  0.85288672     0.16700
C1657       C  0.59091757  0.96670275  0.84589293     0.03000
C1658       C  0.59429853  0.95315476  0.82330083    -0.12200
C1659       C  0.57404923  0.94841889  0.80700355    -0.03300
C1660       C  0.54997954  0.95810769  0.81364955     0.02200
C1661       C  0.56173964  0.98602181  0.87885235     0.09100
N1662       N  0.61221948  0.97098842  0.86167180     0.65400
H1663       H  0.61302747  0.94626663  0.81850300     0.18300
N1664       N  0.52839549  0.95240452  0.79878403     0.75900
H1665       H  0.52776361  0.97784347  0.84177062     0.09800
C1666       C  0.54966468  0.00948021  0.88309554     0.03500
C1667       C  0.54287870  0.01692720  0.90784246    -0.05200
C1668       C  0.54789042  0.00133995  0.92879615    -0.23600
C1669       C  0.56035280  0.97793934  0.92440577     0.12800
C1670       C  0.56720914  0.97071910  0.89975873    -0.12700
N1671       N  0.54416099  0.02592306  0.86243709     0.64500
H1672       H  0.53313854  0.03477352  0.91060232     0.12300
N1673       N  0.56387994  0.95999673  0.94428551     0.61100
H1674       H  0.57569792  0.95227219  0.89681202     0.08500
O1675       O  0.51724392  0.96979218  0.78694257    -0.40400
O1676       O  0.51849182  0.93083061  0.80030016    -0.39500
O1677       O  0.62374036  0.95251103  0.87135620    -0.39500
O1678       O  0.62150887  0.99282293  0.86312434    -0.37200
O1679       O  0.58556201  0.95669255  0.95335590    -0.38100
O1680       O  0.54676673  0.94415737  0.94902235    -0.34300
O1681       O  0.56127847  0.03981496  0.85338353    -0.35700
O1682       O  0.52162211  0.02918750  0.85568763    -0.40000
C1683       C  0.63861811  0.83973997  0.77584924    -0.13700
C1684       C  0.66198807  0.84501611  0.76425216     0.16700
C1685       C  0.66570968  0.86890494  0.75297354     0.03000
C1686       C  0.64610616  0.88678841  0.75307506    -0.12200
C1687       C  0.62283922  0.88138229  0.76458118    -0.03300
C1688       C  0.61912870  0.85774178  0.77610142     0.02200
C1689       C  0.68138916  0.82469409  0.76211658     0.09100
N1690       N  0.68943563  0.87535946  0.74170118     0.65400
H1691       H  0.64909982  0.90502884  0.74427160     0.18300
N1692       N  0.59522795  0.85139289  0.78700924     0.75900
H1693       H  0.63522512  0.82129138  0.78402811     0.09800
C1694       C  0.69061254  0.81199619  0.78359286     0.03500
C1695       C  0.70767953  0.79185227  0.78067522    -0.05200
C1696       C  0.71615551  0.78417573  0.75656375    -0.23600
C1697       C  0.70671011  0.79679858  0.73505327     0.12800
C1698       C  0.68952731  0.81680621  0.73801410    -0.12700
N1699       N  0.68354385  0.81997536  0.80851977     0.64500
H1700       H  0.71489752  0.78266896  0.79745014     0.12300
N1701       N  0.71334833  0.78874052  0.71002878     0.61100
H1702       H  0.68195266  0.82580970  0.72130487     0.08500
O1703       O  0.57772945  0.84362671  0.77305754    -0.40400
O1704       O  0.59079905  0.85595368  0.81006432    -0.39500
O1705       O  0.69124317  0.87809868  0.71803662    -0.39500
O1706       O  0.70753546  0.88176045  0.75557592    -0.37200
O1707       O  0.70247244  0.76990780  0.70050755    -0.38100
O1708       O  0.72714776  0.80249321  0.69622918    -0.34300
O1709       O  0.67027995  0.80575964  0.82237105    -0.35700
O1710       O  0.69375536  0.83920306  0.81799657    -0.40000
C1711       C  0.46998564  0.33166088  0.04828193    -0.13700
C1712       C  0.47350779  0.34773895  0.06904133     0.16700
C1713       C  0.46697711  0.33914473  0.09342266     0.03000
C1714       C  0.45586981  0.31530135  0.09653975    -0.12200
C1715       C  0.45130755  0.29952605  0.07564539    -0.03300
C1716       C  0.45894191  0.30778047  0.05132497     0.02200
C1717       C  0.47904599  0.37477844  0.06412549     0.09100
N1718       N  0.47064444  0.35484460  0.11504903     0.65400
H1719       H  0.45045256  0.30923932  0.11540124     0.18300
N1720       N  0.45331465  0.29333814  0.02926318     0.75900
H1721       H  0.47434831  0.33838016  0.02936831     0.09800
C1722       C  0.50371518  0.38457702  0.06386686     0.03500
C1723       C  0.50795588  0.40952160  0.05558993    -0.05200
C1724       C  0.48791890  0.42461575  0.04684717    -0.23600
C1725       C  0.46321970  0.41503825  0.04845851     0.12800
C1726       C  0.45896005  0.39049093  0.05722621    -0.12700
N1727       N  0.52473296  0.36885658  0.07005349     0.64500
H1728       H  0.52715484  0.41628537  0.05394963     0.12300
N1729       N  0.44237850  0.42945359  0.03953695     0.61100
H1730       H  0.43990485  0.38316539  0.05737838     0.08500
O1731       O  0.47102073  0.28506396  0.01538814    -0.40400
O1732       O  0.43090579  0.29238077  0.02151710    -0.39500
O1733       O  0.45189739  0.36502263  0.12593789    -0.39500
O1734       O  0.49193577  0.35537417  0.12546621    -0.37200
O1735       O  0.43025413  0.44343365  0.05474920    -0.38100
O1736       O  0.43339263  0.42459863  0.01808026    -0.34300
O1737       O  0.53446808  0.35475161  0.05332244    -0.35700
O1738       O  0.53588849  0.37193115  0.09078294    -0.40000
C1739       C  0.51341793  0.37390928  0.95039522    -0.13700
C1740       C  0.53769530  0.37000476  0.94061411     0.16700
C1741       C  0.55302699  0.39098411  0.93507304     0.03000
C1742       C  0.54451498  0.41539237  0.94118550    -0.12200
C1743       C  0.52086647  0.41915189  0.95279678    -0.03300
C1744       C  0.50499467  0.39814567  0.95679982     0.02200
C1745       C  0.54677157  0.34380565  0.93693926     0.09100
N1746       N  0.57808004  0.38757816  0.92542131     0.65400
H1747       H  0.55724698  0.43118894  0.93882047     0.18300
N1748       N  0.48145681  0.40053047  0.96994776     0.75900
H1749       H  0.50143643  0.35784811  0.95443907     0.09800
C1750       C  0.55000048  0.32730545  0.95764327     0.03500
C1751       C  0.55788360  0.30231363  0.95347025    -0.05200
C1752       C  0.56270639  0.29348747  0.92884260    -0.23600
C1753       C  0.55836468  0.30984242  0.90812216     0.12800
C1754       C  0.55077565  0.33482464  0.91236342    -0.12700
N1755       N  0.54645986  0.33606019  0.98303087     0.64500
H1756       H  0.56129920  0.29015572  0.96958037     0.12300
N1757       N  0.56065530  0.30108450  0.88260382     0.61100
H1758       H  0.54746322  0.34715260  0.89635450     0.08500
O1759       O  0.46153262  0.39518219  0.95834888    -0.40400
O1760       O  0.48137587  0.39909665  0.99374951    -0.39500
O1761       O  0.58316294  0.39332490  0.90277840    -0.39500
O1762       O  0.59570268  0.38204139  0.94032410    -0.37200
O1763       O  0.54362739  0.28734461  0.87349490    -0.38100
O1764       O  0.57735839  0.31020235  0.86813872    -0.34300
O1765       O  0.52765040  0.32877398  0.99584762    -0.35700
O1766       O  0.56379413  0.34819023  0.99369467    -0.40000
C1767       C  0.62064082  0.47612687  0.06214170    -0.13700
C1768       C  0.64133887  0.49194790  0.05745150     0.16700
C1769       C  0.63701029  0.51495323  0.04442869     0.03000
C1770       C  0.61285279  0.52056206  0.03489490    -0.12200
C1771       C  0.59237353  0.50430625  0.03914174    -0.03300
C1772       C  0.59644443  0.48220046  0.05367514     0.02200
C1773       C  0.66735729  0.48204832  0.06299798     0.09100
N1774       N  0.65683857  0.53290735  0.04098674     0.65400
H1775       H  0.61007289  0.53772979  0.02410208     0.18300
N1776       N  0.57672359  0.46438102  0.05813934     0.75900
H1777       H  0.62340224  0.45802383  0.07125161     0.09800
C1778       C  0.67262744  0.46861513  0.08552661     0.03500
C1779       C  0.69497530  0.45440911  0.08750020    -0.05200
C1780       C  0.71300059  0.45367896  0.06779976    -0.23600
C1781       C  0.70844658  0.46832232  0.04592221     0.12800
C1782       C  0.68589027  0.48220874  0.04373556    -0.12700
N1783       N  0.65552559  0.46928733  0.10668272     0.64500
H1784       H  0.69833975  0.44405040  0.10482552     0.12300
N1785       N  0.72562930  0.46795988  0.02493468     0.61100
H1786       H  0.68226205  0.49191345  0.02611210     0.08500
O1787       O  0.57333205  0.44664563  0.04261109    -0.40400
O1788       O  0.56556214  0.46396243  0.07933869    -0.39500
O1789       O  0.66092920  0.54243863  0.01945720    -0.39500
O1790       O  0.66799725  0.54169365  0.06001087    -0.37200
O1791       O  0.72550973  0.44963332  0.00967469    -0.38100
O1792       O  0.73798500  0.48753245  0.01947834    -0.34300
O1793       O  0.64857287  0.44898882  0.11709101    -0.35700
O1794       O  0.64974054  0.49014886  0.11679343    -0.40000
C1795       C  0.62128391  0.50612360  0.92196084    -0.13700
C1796       C  0.64217068  0.49649481  0.93497769     0.16700
C1797       C  0.63795233  0.47821523  0.95405810     0.03000
C1798       C  0.61321427  0.47253505  0.96188296    -0.12200
C1799       C  0.59227676  0.48406120  0.95048467    -0.03300
C1800       C  0.59659232  0.49966085  0.92904734     0.02200
C1801       C  0.66711163  0.50938281  0.93207576     0.09100
N1802       N  0.65867215  0.46608960  0.96637906     0.65400
H1803       H  0.61046780  0.45995593  0.97782892     0.18300
N1804       N  0.57618015  0.51069282  0.91536031     0.75900
H1805       H  0.62394329  0.52014888  0.90727826     0.09800
C1806       C  0.67758150  0.51574854  0.90818206     0.03500
C1807       C  0.69869503  0.53166353  0.90670378    -0.05200
C1808       C  0.71000494  0.54116641  0.92863066    -0.23600
C1809       C  0.69965418  0.53476405  0.95248788     0.12800
C1810       C  0.67858901  0.51892002  0.95393364    -0.12700
N1811       N  0.66724446  0.50596518  0.88529445     0.64500
H1812       H  0.70659143  0.53626555  0.88828759     0.12300
N1813       N  0.70892088  0.54585312  0.97530270     0.61100
H1814       H  0.67013304  0.51538275  0.97233196     0.08500
O1815       O  0.56529614  0.49799232  0.89852349    -0.40400
O1816       O  0.57158486  0.53402430  0.91738023    -0.39500
O1817       O  0.65906763  0.46457020  0.99020038    -0.39500
O1818       O  0.67538215  0.45481068  0.95340995    -0.37200
O1819       O  0.71208345  0.53234266  0.99468868    -0.38100
O1820       O  0.71024363  0.56957101  0.97726546    -0.34300
O1821       O  0.66103701  0.52083210  0.86773179    -0.35700
O1822       O  0.66738598  0.48246344  0.88132770    -0.40000
C1823       C  0.51201832  0.61616988  0.05596817    -0.13700
C1824       C  0.53764504  0.62178296  0.05914252     0.16700
C1825       C  0.55574193  0.60255315  0.05537042     0.03000
C1826       C  0.54824357  0.57880597  0.04654569    -0.12200
C1827       C  0.52279168  0.57364717  0.04155836    -0.03300
C1828       C  0.50447899  0.59222211  0.04741607     0.02200
C1829       C  0.54551488  0.64798400  0.06518070     0.09100
N1830       N  0.58198384  0.60741136  0.05879721     0.65400
H1831       H  0.56260398  0.56486055  0.04189301     0.18300
N1832       N  0.47838437  0.58771577  0.04297624     0.75900
H1833       H  0.49791205  0.63073066  0.05920450     0.09800
C1834       C  0.54775542  0.66638704  0.04602935     0.03500
C1835       C  0.55677530  0.69058420  0.05181932    -0.05200
C1836       C  0.56399748  0.69681417  0.07655413    -0.23600
C1837       C  0.56062312  0.67861518  0.09593084     0.12800
C1838       C  0.55170201  0.65439823  0.09005355    -0.12700
N1839       N  0.54235667  0.66023567  0.02033085     0.64500
H1840       H  0.55938220  0.70408517  0.03662338     0.12300
N1841       N  0.56559912  0.68463694  0.12176954     0.61100
H1842       H  0.54962969  0.64050104  0.10497143     0.08500
O1843       O  0.46873126  0.59455277  0.02234526    -0.40400
O1844       O  0.46423004  0.58156292  0.06126181    -0.39500
O1845       O  0.59370598  0.59657264  0.07641982    -0.39500
O1846       O  0.59408833  0.61987703  0.04239329    -0.37200
O1847       O  0.55049535  0.69872590  0.13391935    -0.38100
O1848       O  0.58289861  0.67316791  0.13337058    -0.34300
O1849       O  0.52250509  0.66854036  0.01026151    -0.35700
O1850       O  0.55891575  0.64939765  0.00680904    -0.40000
C1851       C  0.47882044  0.67048453  0.94419766    -0.13700
C1852       C  0.48133146  0.65378787  0.92369001     0.16700
C1853       C  0.47419165  0.66195101  0.89948464     0.03000
C1854       C  0.46356757  0.68602301  0.89630003    -0.12200
C1855       C  0.45962905  0.70239449  0.91701071    -0.03300
C1856       C  0.46798340  0.69457531  0.94112549     0.02200
C1857       C  0.48710779  0.62679419  0.92867595     0.09100
N1858       N  0.47688979  0.64562260  0.87809409     0.65400
H1859       H  0.45778477  0.69165962  0.87752439     0.18300
N1860       N  0.46352112  0.70978181  0.96306646     0.75900
H1861       H  0.48381974  0.66416569  0.96300485     0.09800
C1862       C  0.51178526  0.61795212  0.93309939     0.03500
C1863       C  0.51573797  0.59282625  0.94091660    -0.05200
C1864       C  0.49528412  0.57636035  0.94440306    -0.23600
C1865       C  0.47083025  0.58504358  0.93880673     0.12800
C1866       C  0.46690566  0.61002253  0.93106976    -0.12700
N1867       N  0.53280239  0.63454191  0.93063572     0.64500
H1868       H  0.53461311  0.58663594  0.94568771     0.12300
N1869       N  0.44980859  0.56846442  0.94078828     0.61100
H1870       H  0.44787038  0.61656477  0.92746920     0.08500
O1871       O  0.48184272  0.71992147  0.97413358    -0.40400
O1872       O  0.44208256  0.70961989  0.97366645    -0.39500
O1873       O  0.45807385  0.63360795  0.87015520    -0.39500
O1874       O  0.49692613  0.64610708  0.86501389    -0.37200
O1875       O  0.44832830  0.55004261  0.92575699    -0.38100
O1876       O  0.43129960  0.57407244  0.95495704    -0.34300
O1877       O  0.54287611  0.64358773  0.95013643    -0.35700
O1878       O  0.54305417  0.63783279  0.90924699    -0.40000
C1879       C  0.33453488  0.53804555  0.07896113    -0.13700
C1880       C  0.34617565  0.53674405  0.05513362     0.16700
C1881       C  0.33329926  0.54580001  0.03368858     0.03000
C1882       C  0.30951324  0.55713146  0.03654720    -0.12200
C1883       C  0.29849167  0.55970473  0.06060371    -0.03300
C1884       C  0.31059235  0.54903546  0.08176576     0.02200
C1885       C  0.37189043  0.52617199  0.05251847     0.09100
N1886       N  0.34470761  0.54459514  0.00907375     0.65400
H1887       H  0.30038873  0.56530894  0.02019921     0.18300
N1888       N  0.29836615  0.54871522  0.10603694     0.75900
H1889       H  0.34400253  0.53034196  0.09533290     0.09800
C1890       C  0.39295966  0.53993046  0.06039497     0.03500
C1891       C  0.41701469  0.53302266  0.05164321    -0.05200
C1892       C  0.42048614  0.51261677  0.03491305    -0.23600
C1893       C  0.39950834  0.49694939  0.02976587     0.12800
C1894       C  0.37549926  0.50395655  0.03869813    -0.12700
N1895       N  0.38993037  0.56243335  0.07505029     0.64500
H1896       H  0.43281019  0.54493737  0.05625952     0.12300
N1897       N  0.40105911  0.47591436  0.01294918     0.61100
H1898       H  0.35922424  0.49318443  0.03287760     0.08500
O1899       O  0.30943526  0.55730397  0.12519409    -0.40400
O1900       O  0.27741066  0.53777822  0.10872235    -0.39500
O1901       O  0.33512509  0.53090488  0.99220843    -0.39500
O1902       O  0.36486483  0.55638855  0.00444496    -0.37200
O1903       O  0.39149232  0.45527267  0.01998255    -0.38100
O1904       O  0.40224810  0.48036013  0.98961424    -0.34300
O1905       O  0.39535505  0.56233143  0.09823303    -0.35700
O1906       O  0.38393807  0.58289762  0.06440211    -0.40000
C1907       C  0.39534361  0.46632070  0.91907741    -0.13700
C1908       C  0.37965012  0.48763165  0.91946389     0.16700
C1909       C  0.38866529  0.51009120  0.93028544     0.03000
C1910       C  0.41217329  0.51017312  0.94242628    -0.12200
C1911       C  0.42759058  0.48845615  0.94301110    -0.03300
C1912       C  0.41907143  0.46648818  0.93044149     0.02200
C1913       C  0.35266458  0.48402315  0.91292241     0.09100
N1914       N  0.37397252  0.53275733  0.92929772     0.65400
H1915       H  0.41747107  0.52671738  0.95310414     0.18300
N1916       N  0.43319769  0.44341947  0.93092139     0.75900
H1917       H  0.38847996  0.44880491  0.91109249     0.09800
C1918       C  0.34582358  0.47493867  0.88895207     0.03500
C1919       C  0.32210369  0.46398977  0.88552671    -0.05200
C1920       C  0.30469012  0.46173361  0.90569575    -0.23600
C1921       C  0.31093143  0.47238896  0.92941023     0.12800
C1922       C  0.33466849  0.48368053  0.93261766    -0.12700
N1923       N  0.36323681  0.47585073  0.86814907     0.64500
H1924       H  0.31758095  0.45653738  0.86703169     0.12300
N1925       N  0.29475491  0.46959897  0.95110591     0.61100
H1926       H  0.33998812  0.48999926  0.95131975     0.08500
O1927       O  0.42272853  0.42341112  0.93851447    -0.40400
O1928       O  0.45467974  0.44225953  0.92046860    -0.39500
O1929       O  0.37186237  0.54437880  0.90858020    -0.39500
O1930       O  0.36634244  0.54310175  0.94947426    -0.37200
O1931       O  0.28939373  0.44778052  0.95906846    -0.38100
O1932       O  0.29000688  0.48846119  0.96499713    -0.34300
O1933       O  0.37258877  0.45566865  0.85937442    -0.35700
O1934       O  0.36641972  0.49631358  0.85633949    -0.40000
C1935       C  0.05472270  0.50736824  0.36739038    -0.13700
C1936       C  0.05559661  0.48133651  0.36185264     0.16700
C1937       C  0.04984155  0.46419070  0.38155980     0.03000
C1938       C  0.04326994  0.47307209  0.40572315    -0.12200
C1939       C  0.04109995  0.49903894  0.41106431    -0.03300
C1940       C  0.04701303  0.51629521  0.39148661     0.02200
C1941       C  0.06410488  0.47165309  0.33636447     0.09100
N1942       N  0.04967373  0.43752077  0.37712428     0.65400
H1943       H  0.03846251  0.45925822  0.42008256     0.18300
N1944       N  0.04560689  0.54288922  0.39577280     0.75900
H1945       H  0.06038754  0.52090841  0.35314391     0.09800
C1946       C  0.05110834  0.47689962  0.31367005     0.03500
C1947       C  0.05718273  0.46352666  0.29134691    -0.05200
C1948       C  0.07609825  0.44485441  0.29073097    -0.23600
C1949       C  0.09025758  0.44094850  0.31308481     0.12800
C1950       C  0.08415540  0.45425043  0.33532230    -0.12700
N1951       N  0.03045499  0.49429866  0.31306390     0.64500
H1952       H  0.04626648  0.46727243  0.27453744     0.12300
N1953       N  0.11074491  0.42332752  0.31389650     0.61100
H1954       H  0.09481582  0.45036036  0.35228207     0.08500
O1955       O  0.02687187  0.55526707  0.38788302    -0.40400
O1956       O  0.06472769  0.55446901  0.40362818    -0.39500
O1957       O  0.06367245  0.42314950  0.38993397    -0.39500
O1958       O  0.03322144  0.42807669  0.36292916    -0.37200
O1959       O  0.10912846  0.40409750  0.32792212    -0.38100
O1960       O  0.13188443  0.42938502  0.30460537    -0.34300
O1961       O  0.03477907  0.51766073  0.31447090    -0.35700
O1962       O  0.00990623  0.48708915  0.30374010    -0.40000
C1963       C  0.96483715  0.52525744  0.31706683    -0.13700
C1964       C  0.94393902  0.52049379  0.33281651     0.16700
C1965       C  0.92008357  0.52956095  0.32556598     0.03000
C1966       C  0.91759888  0.54357120  0.30322821    -0.12200
C1967       C  0.93859647  0.54876675  0.28759633    -0.03300
C1968       C  0.96236878  0.53895407  0.29443698     0.02200
C1969       C  0.94817884  0.51016392  0.35861612     0.09100
N1970       N  0.89838080  0.52555052  0.34128257     0.65400
H1971       H  0.89915572  0.55085415  0.29834100     0.18300
N1972       N  0.98452697  0.54479221  0.28001479     0.75900
H1973       H  0.98336940  0.51994339  0.32340894     0.09800
C1974       C  0.95830277  0.48581098  0.36288994     0.03500
C1975       C  0.96561400  0.47877777  0.38749223    -0.05200
C1976       C  0.96303255  0.49555735  0.40804414    -0.23600
C1977       C  0.95238784  0.51975285  0.40346597     0.12800
C1978       C  0.94503598  0.52661197  0.37909872    -0.12700
N1979       N  0.96133927  0.46813759  0.34250877     0.64500
H1980       H  0.97392106  0.46028716  0.39039829     0.12300
N1981       N  0.95089858  0.53861396  0.42273013     0.61100
H1982       H  0.93803390  0.54560760  0.37591226     0.08500
O1983       O  0.99513116  0.52786643  0.26682576    -0.40400
O1984       O  0.99544826  0.56563371  0.28328872    -0.39500
O1985       O  0.88924351  0.54359795  0.35406708    -0.39500
O1986       O  0.88639127  0.50510813  0.33968757    -0.37200
O1987       O  0.96734178  0.55574180  0.42314412    -0.38100
O1988       O  0.93060045  0.54154342  0.43508183    -0.34300
O1989       O  0.98075838  0.45428186  0.34118026    -0.35700
O1990       O  0.94346623  0.46441381  0.32739169    -0.40000
C1991       C  0.08041106  0.55426733  0.66235438    -0.13700
C1992       C  0.05671756  0.54395853  0.65765034     0.16700
C1993       C  0.03856233  0.54347118  0.67730147     0.03000
C1994       C  0.04412092  0.55385132  0.70107203    -0.12200
C1995       C  0.06776229  0.56474740  0.70583133    -0.03300
C1996       C  0.08630253  0.56422280  0.68618155     0.02200
C1997       C  0.05091093  0.53504342  0.63171342     0.09100
N1998       N  0.01400454  0.53350000  0.67303090     0.65400
H1999       H  0.02955374  0.55401858  0.71560306     0.18300
N2000       N  0.11144200  0.57303487  0.69016729     0.75900
H2001       H  0.09454461  0.55439825  0.64738680     0.09800
C2002       C  0.04276140  0.55215451  0.61312394     0.03500
C2003       C  0.03608038  0.54333234  0.58916530    -0.05200
C2004       C  0.03769309  0.51757800  0.58296742    -0.23600
C2005       C  0.04708778  0.50056506  0.60118991     0.12800
C2006       C  0.05355850  0.50939288  0.62540177    -0.12700
N2007       N  0.04027584  0.57846594  0.61865168     0.64500
H2008       H  0.02858345  0.55655171  0.57555723     0.12300
N2009       N  0.04836576  0.47411625  0.59612234     0.61100
H2010       H  0.06000874  0.49609718  0.63953388     0.08500
O2011       O  0.12144931  0.58809241  0.67455660    -0.40400
O2012       O  0.12497753  0.56261178  0.70670841    -0.39500
O2013       O  0.00991517  0.51033507  0.67674219    -0.39500
O2014       O  0.99566628  0.54842018  0.66994895    -0.37200
O2015       O  0.06952139  0.46389289  0.59179894    -0.38100
O2016       O  0.02951880  0.46044530  0.60103242    -0.34300
O2017       O  0.05843870  0.59310164  0.61398993    -0.35700
O2018       O  0.01886292  0.58758797  0.62408137    -0.40000
C2019       C  0.93801488  0.44599993  0.61232385    -0.13700
C2020       C  0.93494129  0.46541798  0.63022625     0.16700
C2021       C  0.93746701  0.49069193  0.62211757     0.03000
C2022       C  0.94396225  0.49602856  0.59681311    -0.12200
C2023       C  0.94805250  0.47650006  0.57925731    -0.03300
C2024       C  0.94433362  0.45132492  0.58704511     0.02200
C2025       C  0.93104120  0.45856718  0.65742127     0.09100
N2026       N  0.93445288  0.51108004  0.63958664     0.65400
H2027       H  0.94747789  0.51542122  0.59130164     0.18300
N2028       N  0.94751517  0.43098472  0.56946062     0.75900
H2029       H  0.93626067  0.42647982  0.61818978     0.09800
C2030       C  0.91152315  0.44216287  0.66487779     0.03500
C2031       C  0.91051196  0.43287217  0.68964876    -0.05200
C2032       C  0.92863704  0.43947658  0.70784453    -0.23600
C2033       C  0.94758401  0.45686331  0.70063905     0.12800
C2034       C  0.94867006  0.46608219  0.67562966    -0.12700
N2035       N  0.89252945  0.43465930  0.64742682     0.64500
H2036       H  0.89530067  0.42012197  0.69447769     0.12300
N2037       N  0.96647900  0.46462898  0.71799845     0.61100
H2038       H  0.96408347  0.47832344  0.67013839     0.08500
O2039       O  0.96033096  0.41174259  0.57533371    -0.40400
O2040       O  0.93556194  0.43125877  0.54894821    -0.39500
O2041       O  0.95340883  0.52373346  0.64606023    -0.39500
O2042       O  0.91261563  0.51881278  0.64544034    -0.37200
O2043       O  0.98628333  0.45154829  0.72029980    -0.38100
O2044       O  0.96567806  0.48668174  0.72702385    -0.34300
O2045       O  0.89042425  0.41170123  0.64142225    -0.35700
O2046       O  0.87551642  0.45015953  0.64125864    -0.40000
C2047       C  0.04626439  0.32386647  0.52356154    -0.13700
C2048       C  0.06566845  0.34005380  0.51548797     0.16700
C2049       C  0.09087215  0.33252924  0.51905902     0.03000
C2050       C  0.09633931  0.30977509  0.53148806    -0.12200
C2051       C  0.07703417  0.29381390  0.54038960    -0.03300
C2052       C  0.05168980  0.30096720  0.53600459     0.02200
C2053       C  0.05946333  0.36612924  0.50671961     0.09100
N2054       N  0.11113576  0.34782729  0.50992431     0.65400
H2055       H  0.11591680  0.30453585  0.53408669     0.18300
N2056       N  0.03125693  0.28628906  0.54579741     0.75900
H2057       H  0.02678416  0.32965984  0.52135932     0.09800
C2058       C  0.04669078  0.37086529  0.48394158     0.03500
C2059       C  0.03892973  0.39566133  0.47787903    -0.05200
C2060       C  0.04375340  0.41611870  0.49421551    -0.23600
C2061       C  0.05669197  0.41103426  0.51704315     0.12800
C2062       C  0.06464368  0.38642264  0.52278572    -0.12700
N2063       N  0.04150288  0.35063260  0.46687221     0.64500
H2064       H  0.02878647  0.39884815  0.46047165     0.12300
N2065       N  0.05954893  0.43001089  0.53598482     0.61100
H2066       H  0.07378538  0.38289876  0.54070430     0.08500
O2067       O  0.01674632  0.27502009  0.53082716    -0.40400
O2068       O  0.02569396  0.28739638  0.56905023    -0.39500
O2069       O  0.12578452  0.35830957  0.52532282    -0.39500
O2070       O  0.11604574  0.34857903  0.48652212    -0.37200
O2071       O  0.04156909  0.43440030  0.55121981    -0.38100
O2072       O  0.08111586  0.43880843  0.54043268    -0.34300
O2073       O  0.01901475  0.34517419  0.46167015    -0.35700
O2074       O  0.05936086  0.33759939  0.45765258    -0.40000
C2075       C  0.93598121  0.38770167  0.46308301    -0.13700
C2076       C  0.93993873  0.36720422  0.47944586     0.16700
C2077       C  0.95120767  0.37185664  0.50303795     0.03000
C2078       C  0.95937715  0.39628381  0.50914956    -0.12200
C2079       C  0.95558292  0.41691360  0.49275047    -0.03300
C2080       C  0.94317100  0.41234696  0.46951353     0.02200
C2081       C  0.93511347  0.34101941  0.46996383     0.09100
N2082       N  0.95454895  0.35195010  0.52100120     0.65400
H2083       H  0.96922403  0.39897264  0.52675064     0.18300
N2084       N  0.93931076  0.43193738  0.45124711     0.75900
H2085       H  0.92803295  0.38445198  0.44458933     0.09800
C2086       C  0.91263350  0.33498356  0.45731307     0.03500
C2087       C  0.91085173  0.31225369  0.44389485    -0.05200
C2088       C  0.93091439  0.29471095  0.44288783    -0.23600
C2089       C  0.95290646  0.30005703  0.45683613     0.12800
C2090       C  0.95472608  0.32301597  0.47013870    -0.12700
N2091       N  0.89140910  0.35181389  0.45782686     0.64500
H2092       H  0.89343844  0.30835933  0.43412631     0.12300
N2093       N  0.97431698  0.28350330  0.45629221     0.61100
H2094       H  0.97233176  0.32749245  0.47925436     0.08500
O2095       O  0.92362258  0.44937718  0.45591204    -0.40400
O2096       O  0.94729709  0.42893751  0.42885146    -0.39500
O2097       O  0.97626452  0.34689642  0.52920235    -0.39500
O2098       O  0.93550199  0.34179023  0.53116774    -0.37200
O2099       O  0.98589473  0.27961358  0.43565766    -0.38100
O2100       O  0.98461134  0.27719467  0.47678609    -0.34300
O2101       O  0.88170179  0.35916447  0.43738490    -0.35700
O2102       O  0.88048589  0.35679539  0.47857625    -0.40000
C2103       C  0.94927935  0.66580479  0.52003659    -0.13700
C2104       C  0.92854584  0.65011444  0.51550137     0.16700
C2105       C  0.90429876  0.65845089  0.52286054     0.03000
C2106       C  0.90121784  0.68187063  0.53499817    -0.12200
C2107       C  0.92203206  0.69739317  0.54014476    -0.03300
C2108       C  0.94626356  0.68922915  0.53222503     0.02200
C2109       C  0.93321588  0.62398008  0.50610741     0.09100
N2110       N  0.88266642  0.64319533  0.51834899     0.65400
H2111       H  0.88242175  0.68778282  0.54075423     0.18300
N2112       N  0.96822241  0.70336890  0.53841136     0.75900
H2113       H  0.96810642  0.65921005  0.51524927     0.09800
C2114       C  0.94239741  0.61913992  0.48145743     0.03500
C2115       C  0.95161443  0.59492915  0.47504186    -0.05200
C2116       C  0.95063215  0.57491662  0.49257104    -0.23600
C2117       C  0.93918474  0.57951715  0.51656657     0.12800
C2118       C  0.93100814  0.60387732  0.52312888    -0.12700
N2119       N  0.94123898  0.63833340  0.46250037     0.64500
H2120       H  0.95973041  0.59187920  0.45642131     0.12300
N2121       N  0.93774838  0.56025062  0.53546429     0.61100
H2122       H  0.92392962  0.60734478  0.54213647     0.08500
O2123       O  0.97966697  0.71563839  0.52139920    -0.40400
O2124       O  0.97824777  0.70052062  0.55977723    -0.39500
O2125       O  0.87444500  0.62883248  0.53556712    -0.39500
O2126       O  0.86942549  0.64726568  0.49906467    -0.37200
O2127       O  0.95483206  0.55853256  0.55182573    -0.38100
O2128       O  0.91744408  0.54828338  0.53862517    -0.34300
O2129       O  0.95812219  0.65494968  0.46116234    -0.35700
O2130       O  0.92135563  0.64103193  0.44985981    -0.40000
C2131       C  0.04179072  0.62168694  0.50456332    -0.13700
C2132       C  0.05756265  0.62340545  0.48312464     0.16700
C2133       C  0.06653694  0.60087299  0.47186115     0.03000
C2134       C  0.05836088  0.57740768  0.48110840    -0.12200
C2135       C  0.04048788  0.57565703  0.50098266    -0.03300
C2136       C  0.03305061  0.59827136  0.51341450     0.02200
C2137       C  0.06368152  0.64876118  0.47226258     0.09100
N2138       N  0.08224470  0.60146532  0.44967471     0.65400
H2139       H  0.06449442  0.56055459  0.47112188     0.18300
N2140       N  0.01592838  0.59810393  0.53446212     0.75900
H2141       H  0.03539495  0.63877930  0.51397688     0.09800
C2142       C  0.04443088  0.66629422  0.46635100     0.03500
C2143       C  0.05057009  0.68992036  0.45604533    -0.05200
C2144       C  0.07564430  0.69624188  0.45037759    -0.23600
C2145       C  0.09498598  0.67894105  0.45670504     0.12800
C2146       C  0.08888468  0.65556728  0.46768707    -0.12700
N2147       N  0.01843880  0.65970701  0.46903945     0.64500
H2148       H  0.03545918  0.70271278  0.45086390     0.12300
N2149       N  0.12094910  0.68506487  0.45265397     0.61100
H2150       H  0.10394583  0.64265801  0.47269701     0.08500
O2151       O  0.99285808  0.60248419  0.53072924    -0.40400
O2152       O  0.02453196  0.60075504  0.55645613    -0.39500
O2153       O  0.10325307  0.59015019  0.44950713    -0.39500
O2154       O  0.07399707  0.61092762  0.42944424    -0.37200
O2155       O  0.13119366  0.70159920  0.46626713    -0.38100
O2156       O  0.13444553  0.67153987  0.43818543    -0.34300
O2157       O  0.00354210  0.67410008  0.48106903    -0.35700
O2158       O  0.00985895  0.64103974  0.45708889    -0.40000
C2159       C  0.45948096  0.07241253  0.67743632    -0.13700
C2160       C  0.45982019  0.04784856  0.66779763     0.16700
C2161       C  0.45353047  0.02742592  0.68376198     0.03000
C2162       C  0.44599041  0.03204902  0.70886841    -0.12200
C2163       C  0.44429148  0.05683441  0.71814087    -0.03300
C2164       C  0.45192946  0.07708374  0.70244625     0.02200
C2165       C  0.46695295  0.04396850  0.64102658     0.09100
N2166       N  0.45368816  0.00206832  0.67444163     0.65400
H2167       H  0.43992599  0.01638498  0.72059969     0.18300
N2168       N  0.45224452  0.10247395  0.71174525     0.75900
H2169       H  0.46496296  0.08805121  0.66538294     0.09800
C2170       C  0.44850420  0.04237443  0.62219575     0.03500
C2171       C  0.45567446  0.03649050  0.59734541    -0.05200
C2172       C  0.48110850  0.03298870  0.59064336    -0.23600
C2173       C  0.49972180  0.03620654  0.60932098     0.12800
C2174       C  0.49244477  0.04163719  0.63431419    -0.12700
N2175       N  0.42245228  0.04636795  0.62820166     0.64500
H2176       H  0.44117140  0.03367983  0.58327244     0.12300
N2177       N  0.52583830  0.03193917  0.60387613     0.61100
H2178       H  0.50674764  0.04306742  0.64879860     0.08500
O2179       O  0.44136641  0.11985392  0.69961428    -0.40400
O2180       O  0.46609918  0.10804971  0.73017258    -0.39500
O2181       O  0.46975601  0.98650096  0.68259055    -0.39500
O2182       O  0.43495204  0.99403463  0.66239370    -0.37200
O2183       O  0.54109440  0.04992880  0.60654621    -0.38100
O2184       O  0.53422472  0.00960103  0.60371683    -0.34300
O2185       O  0.41374713  0.06857921  0.62902824    -0.35700
O2186       O  0.40749910  0.02791664  0.62862447    -0.40000
C2187       C  0.50713602  0.94357819  0.63478463    -0.13700
C2188       C  0.53227426  0.93758589  0.64026504     0.16700
C2189       C  0.54972465  0.93483318  0.62015661     0.03000
C2190       C  0.54211545  0.93908355  0.59510548    -0.12200
C2191       C  0.51705273  0.94567800  0.58951614    -0.03300
C2192       C  0.49938419  0.94748231  0.60969586     0.02200
C2193       C  0.54009634  0.93379205  0.66698052     0.09100
N2194       N  0.57559970  0.92921924  0.62511153     0.65400
H2195       H  0.55619259  0.93876487  0.58008178     0.18300
N2196       N  0.47392677  0.95513209  0.60517126     0.75900
H2197       H  0.49352681  0.94555851  0.65010918     0.09800
C2198       C  0.54413942  0.95434245  0.68343215     0.03500
C2199       C  0.55237735  0.95000993  0.70830354    -0.05200
C2200       C  0.55724108  0.92538513  0.71697786    -0.23600
C2201       C  0.55231961  0.90482886  0.70065253     0.12800
C2202       C  0.54394803  0.90919679  0.67593458    -0.12700
N2203       N  0.54171024  0.97972503  0.67455003     0.64500
H2204       H  0.55644702  0.96602779  0.72032125     0.12300
N2205       N  0.55543302  0.87933444  0.70904080     0.61100
H2206       H  0.54052281  0.89326740  0.66358186     0.08500
O2207       O  0.46526454  0.97494198  0.61539632    -0.40400
O2208       O  0.45913344  0.94023618  0.59417588    -0.39500
O2209       O  0.58391927  0.90706594  0.62195179    -0.39500
O2210       O  0.58965238  0.94588154  0.63445978    -0.37200
O2211       O  0.53943405  0.86980594  0.72403282    -0.38100
O2212       O  0.57216362  0.86542766  0.69902194    -0.34300
O2213       O  0.52453985  0.99382706  0.68344300    -0.35700
O2214       O  0.55914219  0.98923327  0.66126275    -0.40000
C2215       C  0.37475825  0.03297637  0.50561755    -0.13700
C2216       C  0.37101087  0.03872594  0.48003723     0.16700
C2217       C  0.39235637  0.04249035  0.46437746     0.03000
C2218       C  0.41683157  0.03919468  0.47408464    -0.12200
C2219       C  0.42070832  0.03172457  0.49938682    -0.03300
C2220       C  0.39919702  0.02945373  0.51534853     0.02200
C2221       C  0.34490121  0.04256987  0.47012793     0.09100
N2222       N  0.38936957  0.04868395  0.43823149     0.65400
H2223       H  0.43277327  0.04079726  0.46121080     0.18300
N2224       N  0.40191771  0.02441904  0.54172602     0.75900
H2225       H  0.35856018  0.03140657  0.51809494     0.09800
C2226       C  0.32858447  0.02219682  0.46516308     0.03500
C2227       C  0.30505866  0.02646480  0.45381914    -0.05200
C2228       C  0.29718830  0.05091547  0.44729172    -0.23600
C2229       C  0.31280255  0.07148258  0.45381711     0.12800
C2230       C  0.33652584  0.06711737  0.46469610    -0.12700
N2231       N  0.33613970  0.99685805  0.47015888     0.64500
H2232       H  0.29346603  0.01041119  0.44898637     0.12300
N2233       N  0.30447857  0.09696492  0.45025275     0.61100
H2234       H  0.34848925  0.08303214  0.46904872     0.08500
O2235       O  0.40161166  0.00197192  0.54970310    -0.40400
O2236       O  0.40069123  0.04244132  0.55730977    -0.39500
O2237       O  0.39570138  0.07020980  0.43023986    -0.39500
O2238       O  0.37857000  0.03346019  0.42355721    -0.37200
O2239       O  0.31782540  0.11213037  0.43755578    -0.38100
O2240       O  0.28585173  0.10524490  0.46286591    -0.34300
O2241       O  0.32597249  0.98533533  0.48846810    -0.35700
O2242       O  0.34668394  0.98432305  0.45267760    -0.40000
C2243       C  0.37418735  0.94867592  0.49722040    -0.13700
C2244       C  0.37055472  0.94357144  0.52304719     0.16700
C2245       C  0.39190243  0.94013775  0.53840313     0.03000
C2246       C  0.41610431  0.94402816  0.52810638    -0.12200
C2247       C  0.41969739  0.95115191  0.50262883    -0.03300
C2248       C  0.39830995  0.95322149  0.48701524     0.02200
C2249       C  0.34429918  0.94192617  0.53332141     0.09100
N2250       N  0.38944512  0.93182213  0.56413959     0.65400
H2251       H  0.43219802  0.94200236  0.54037218     0.18300
N2252       N  0.40052131  0.95963410  0.46078410     0.75900
H2253       H  0.35808143  0.94967536  0.48501265     0.09800
C2254       C  0.33462503  0.95930361  0.55139290     0.03500
C2255       C  0.30967230  0.95711493  0.56023733    -0.05200
C2256       C  0.29400068  0.93789921  0.55146491    -0.23600
C2257       C  0.30337628  0.92095754  0.53305741     0.12800
C2258       C  0.32825449  0.92316048  0.52403786    -0.12700
N2259       N  0.34954491  0.97961740  0.56063898     0.64500
H2260       H  0.30275258  0.97004127  0.57466174     0.12300
N2261       N  0.28781068  0.90133088  0.52344256     0.61100
H2262       H  0.33520260  0.90992893  0.50991318     0.08500
O2263       O  0.40522045  0.98212503  0.45450755    -0.40400
O2264       O  0.39177048  0.94477739  0.44443941    -0.39500
O2265       O  0.37593501  0.91294216  0.56939676    -0.39500
O2266       O  0.40337487  0.94100167  0.58100043    -0.37200
O2267       O  0.27353556  0.90582709  0.50501621    -0.38100
O2268       O  0.29139909  0.87882510  0.53042206    -0.34300
O2269       O  0.34485750  0.00166862  0.55294321    -0.35700
O2270       O  0.36092129  0.97690176  0.58131088    -0.40000
C2271       C  0.52837658  0.03782547  0.32531616    -0.13700
C2272       C  0.52357906  0.05813075  0.34178554     0.16700
C2273       C  0.53337083  0.08209757  0.33567487     0.03000
C2274       C  0.54845815  0.08516523  0.31398375    -0.12200
C2275       C  0.55399375  0.06473043  0.29784387    -0.03300
C2276       C  0.54369977  0.04078408  0.30367683     0.02200
C2277       C  0.51332389  0.05282324  0.36753703     0.09100
N2278       N  0.52831376  0.10344944  0.35156132     0.65400
H2279       H  0.55575673  0.10376765  0.30967995     0.18300
N2280       N  0.55051556  0.01883514  0.28929729     0.75900
H2281       H  0.52177170  0.01912651  0.33030136     0.09800
C2282       C  0.49007239  0.04060240  0.37169520     0.03500
C2283       C  0.48351647  0.03204866  0.39609061    -0.05200
C2284       C  0.49989005  0.03535712  0.41659698    -0.23600
C2285       C  0.52281195  0.04855846  0.41233338     0.12800
C2286       C  0.52913016  0.05704405  0.38810531    -0.12700
N2287       N  0.47319144  0.03637287  0.35124252     0.64500
H2288       H  0.46600477  0.02188851  0.39872996     0.12300
N2289       N  0.54102091  0.05182514  0.43182191     0.61100
H2290       H  0.54734615  0.06581360  0.38509676     0.08500
O2291       O  0.53354808  0.00486147  0.28045337    -0.40400
O2292       O  0.57308500  0.01112614  0.28919860    -0.39500
O2293       O  0.54628559  0.11539301  0.36135325    -0.39500
O2294       O  0.50607083  0.11179405  0.35387311    -0.37200
O2295       O  0.53959309  0.07079764  0.44621856    -0.38100
O2296       O  0.56070434  0.03830942  0.43178212    -0.34300
O2297       O  0.46252222  0.05488887  0.34070834    -0.35700
O2298       O  0.46672554  0.01418366  0.34564142    -0.40000
C2299       C  0.47894150  0.92769120  0.38853589    -0.13700
C2300       C  0.49540686  0.93425747  0.36861497     0.16700
C2301       C  0.51783679  0.94715080  0.37430898     0.03000
C2302       C  0.52251836  0.95450844  0.39934807    -0.12200
C2303       C  0.50539346  0.94896591  0.41918187    -0.03300
C2304       C  0.48390602  0.93455210  0.41359331     0.02200
C2305       C  0.48695230  0.93027177  0.34209626     0.09100
N2306       N  0.53586481  0.95308418  0.35486352     0.65400
H2307       H  0.53928004  0.96544841  0.40306855     0.18300
N2308       N  0.46617688  0.92786458  0.43290392     0.75900
H2309       H  0.46146204  0.91805949  0.38450905     0.09800
C2310       C  0.47767288  0.90667796  0.33425588     0.03500
C2311       C  0.46406434  0.90480587  0.31179616    -0.05200
C2312       C  0.45977057  0.92600529  0.29636606    -0.23600
C2313       C  0.47064961  0.94929546  0.30328447     0.12800
C2314       C  0.48405885  0.95122147  0.32599857    -0.12700
N2315       N  0.48167089  0.88448503  0.34915328     0.64500
H2316       H  0.45663053  0.88655073  0.30651495     0.12300
N2317       N  0.46642188  0.97162255  0.28871656     0.61100
H2318       H  0.49081595  0.96956016  0.33185815     0.08500
O2319       O  0.44468690  0.93814999  0.43335169    -0.40400
O2320       O  0.47062404  0.90929412  0.44715842    -0.39500
O2321       O  0.54632151  0.93552610  0.34238921    -0.39500
O2322       O  0.54353431  0.97545902  0.35217902    -0.37200
O2323       O  0.44660263  0.98449846  0.29225650    -0.38100
O2324       O  0.48365331  0.97997420  0.27441627    -0.34300
O2325       O  0.46308779  0.87174484  0.35691227    -0.35700
O2326       O  0.50375288  0.87606125  0.35210603    -0.40000
C2327       C  0.61379828  0.05755559  0.53282827    -0.13700
C2328       C  0.63358111  0.05181668  0.51589169     0.16700
C2329       C  0.62795262  0.04125623  0.49220352     0.03000
C2330       C  0.60281462  0.03603585  0.48618968    -0.12200
C2331       C  0.58295091  0.04064419  0.50358289    -0.03300
C2332       C  0.58873120  0.05171791  0.52710654     0.02200
C2333       C  0.65991232  0.05505884  0.52453674     0.09100
N2334       N  0.64754940  0.03532026  0.47429050     0.65400
H2335       H  0.59895732  0.02734315  0.46809086     0.18300
N2336       N  0.57005748  0.05407455  0.54662556     0.75900
H2337       H  0.61805797  0.06508843  0.55136066     0.09800
C2338       C  0.66911423  0.07926122  0.52998467     0.03500
C2339       C  0.69194663  0.08194674  0.54269684    -0.05200
C2340       C  0.70621517  0.06076703  0.55005079    -0.23600
C2341       C  0.69736568  0.03641225  0.54389149     0.12800
C2342       C  0.67444359  0.03377575  0.53098472    -0.12700
N2343       N  0.65524705  0.10129873  0.52280376     0.64500
H2344       H  0.69857348  0.10081118  0.54680315     0.12300
N2345       N  0.71004638  0.01426922  0.55275833     0.61100
H2346       H  0.66720210  0.01503965  0.52736651     0.08500
O2347       O  0.56299020  0.07568432  0.55394296    -0.40400
O2348       O  0.56412334  0.03487503  0.55945873    -0.39500
O2349       O  0.64875610  0.01359292  0.46450651    -0.39500
O2350       O  0.66169888  0.05257775  0.46595236    -0.37200
O2351       O  0.70845355  0.00830040  0.57583607    -0.38100
O2352       O  0.71959240  0.99884813  0.53713868    -0.34300
O2353       O  0.64593757  0.11568968  0.53952414    -0.35700
O2354       O  0.65299644  0.10684453  0.49971360    -0.40000
C2355       C  0.68025502  0.95669763  0.48430456    -0.13700
C2356       C  0.66336768  0.93634687  0.48555397     0.16700
C2357       C  0.67079448  0.91286792  0.47539822     0.03000
C2358       C  0.69434684  0.91020251  0.46363353    -0.12200
C2359       C  0.71101106  0.93067842  0.46129626    -0.03300
C2360       C  0.70386976  0.95413441  0.47210708     0.02200
C2361       C  0.63660039  0.94091143  0.49281908     0.09100
N2362       N  0.65409494  0.89175388  0.47600973     0.65400
H2363       H  0.69936997  0.89191267  0.45583512     0.18300
N2364       N  0.71914500  0.97604767  0.46874720     0.75900
H2365       H  0.67444836  0.97505062  0.49140862     0.09800
C2366       C  0.62907488  0.94920823  0.51710604     0.03500
C2367       C  0.60366939  0.95565328  0.52179572    -0.05200
C2368       C  0.58541465  0.95353116  0.50275580    -0.23600
C2369       C  0.59312738  0.94429189  0.47864649     0.12800
C2370       C  0.61844346  0.93843493  0.47399789    -0.12700
N2371       N  0.64693690  0.95103125  0.53712493     0.64500
H2372       H  0.59827948  0.96278940  0.54030440     0.12300
N2373       N  0.57605688  0.94255703  0.45792954     0.61100
H2374       H  0.62413017  0.93253151  0.45513067     0.08500
O2375       O  0.73457711  0.98225359  0.48561879    -0.40400
O2376       O  0.71469590  0.99104617  0.45076619    -0.39500
O2377       O  0.64533785  0.88313353  0.45566410    -0.39500
O2378       O  0.65033823  0.88004301  0.49647845    -0.37200
O2379       O  0.56076852  0.92440691  0.45695317    -0.38100
O2380       O  0.57947826  0.95616044  0.43859512    -0.34300
O2381       O  0.64809812  0.97090666  0.55023343    -0.35700
O2382       O  0.65930091  0.93174046  0.54373423    -0.40000
loop_ 
_geom_bond_atom_site_label_1 
_geom_bond_atom_site_label_2 
_geom_bond_distance 
_geom_bond_site_symmetry_2 
_ccdc_geom_bond_type 
O1            C9   1.258       .  A
O1          Co21   1.938       .  S
O2           C10   1.261       .  A
O2          Co22   1.964       .  S
O3           C11   1.266       .  A
O3          Co23   1.990   1_565  S
O4           C12   1.264       .  A
O4          Co24   2.036       .  S
O5           C11   1.273       .  A
O5          Co22   1.997       .  S
O6           C12   1.239       .  A
O6          Co21   1.944       .  S
O7           C10   1.265       .  A
O7          Co24   2.020       .  S
O8            C9   1.279       .  A
O8          Co23   2.045   1_565  S
C9         C2368   1.489       .  S
C10        C2247   1.489       .  S
C11        C2191   1.484       .  S
C12        C2303   1.490       .  S
O13          C26   1.288       .  A
O13         Co21   2.045   1_545  S
O14          C27   1.263   1_565  A
O14         Co22   1.983       .  S
O15          C28   1.267       .  A
O15         Co23   1.997       .  S
O16          C29   1.273       .  A
O16         Co24   1.975   1_545  S
O17          C29   1.282       .  A
O17         Co22   2.048   1_545  S
O18          C28   1.250       .  A
O18         Co21   1.958   1_545  S
O19          C26   1.276       .  A
O19         Co24   1.926   1_545  S
O20          C27   1.265       .  A
O20         Co23   1.985       .  S
Co21         O25   2.060       .  S
Co22         O25   2.058       .  S
Co23         O25   2.104   1_545  S
Co24         O25   2.030       .  S
C26        C2284   1.491       .  S
C27        C2172   1.473       .  S
C28        C2331   1.489       .  S
C29        C2219   1.505       .  S
O30          C38   1.256       .  A
O30         Co50   1.964       .  S
O31          C39   1.268       .  A
O31         Co51   1.964       .  S
O32          C40   1.289       .  A
O32         Co52   2.076   1_655  S
O33          C41   1.268       .  A
O33         Co53   1.995   1_655  S
O34          C40   1.271       .  A
O34         Co51   1.924       .  S
O35          C41   1.269       .  A
O35         Co50   1.988       .  S
O36          C39   1.283       .  A
O36         Co53   2.046   1_655  S
O37          C38   1.269       .  A
O37         Co52   2.040   1_655  S
C38        C2116   1.496       .  S
C39        C2079   1.499       .  S
C40        C1976   1.495       .  S
C41        C2023   1.479       .  S
O42          C55   1.268       .  A
O42         Co50   1.989   1_455  S
O43          C56   1.291       .  A
O43         Co51   2.074   1_455  S
O44          C57   1.269       .  A
O44         Co52   1.964       .  S
O45          C58   1.260       .  A
O45         Co53   1.970       .  S
O46          C58   1.267       .  A
O46         Co51   2.029   1_455  S
O47          C57   1.282       .  A
O47         Co50   2.052   1_455  S
O48          C55   1.273       .  A
O48         Co53   1.999       .  S
O49          C56   1.272       .  A
O49         Co52   1.940       .  S
Co50         O54   2.038       .  S
Co51         O54   2.040       .  S
Co52         O54   2.045   1_455  S
Co53         O54   2.046   1_455  S
C55        C2004   1.483       .  S
C56        C1939   1.500       .  S
C57        C2135   1.499       .  S
C58        C2060   1.502       .  S
O59          C67   1.267       .  A
O59         Co79   1.868       .  S
O60          C68   1.259       .  A
O60         Co80   1.956       .  S
O61          C69   1.259       .  A
O61         Co81   1.988       .  S
O62          C70   1.267       .  A
O62         Co82   1.991   1_556  S
O63          C69   1.262       .  A
O63         Co80   1.992       .  S
O64          C70   1.272       .  A
O64         Co79   1.994       .  S
O65          C68   1.280       .  A
O65         Co82   2.050   1_556  S
O66          C67   1.308       .  A
O66         Co81   2.154       .  S
C67        C1911   1.495       .  S
C68        C1799   1.495       .  S
C69        C1864   1.481       .  S
C70        C1743   1.469       .  S
O71          C84   1.267       .  A
O71         Co79   1.998   1_554  S
O72          C85   1.274       .  A
O72         Co80   1.998   1_554  S
O73          C86   1.262       .  A
O73         Co81   1.874   1_554  S
O74          C87   1.257       .  A
O74         Co82   1.958       .  S
O75          C87   1.275       .  A
O75         Co80   2.049   1_554  S
O76          C86   1.301       .  A
O76         Co79   2.143   1_554  S
O77          C84   1.264       .  A
O77         Co82   1.986       .  S
O78          C85   1.279       .  A
O78         Co81   2.003   1_554  S
Co79         O83   2.008       .  S
Co80         O83   2.057       .  S
Co81         O83   1.999       .  S
Co82         O83   2.053   1_554  S
C84        C1724   1.486       .  S
C85        C1827   1.482       .  S
C86        C1892   1.486       .  S
C87        C1771   1.494       .  S
C88        C2200   1.490       .  S
C88          N89   1.359       .  A
C88          N93   1.367       .  A
N89          C90   1.354       .  A
C90        C1687   1.471       .  S
C90          N91   1.355       .  A
N91          C92   1.361       .  A
C92        C1659   1.495       .  S
C92          N93   1.368       .  A
C94        C1612   1.494       .  S
C94          N95   1.361       .  A
C94          N99   1.361       .  A
N95          C96   1.359       .  A
C96        C1696   1.486       .  S
C96          N97   1.358       .  A
N97          C98   1.358       .  A
C98        C1631   1.483       .  S
C98          N99   1.361       .  A
C100       C2107   1.491       .  S
C100        N101   1.360       .  A
C100        N105   1.366       .  A
N101        C102   1.357       .  A
C102       C1640   1.495       .  S
C102        N103   1.357       .  A
N103        C104   1.358       .  A
C104       C1575   1.495       .  S
C104        N105   1.365       .  A
C106       C1547   1.494       .  S
C106        N107   1.361       .  A
C106        N111   1.360       .  A
N107        C108   1.358       .  A
C108       C1603   1.488       .  S
C108        N109   1.360       .  A
N109        C110   1.360       .  A
C110       C1808   1.484       .  S
C110        N111   1.361       .  A
C112       C1500   1.491       .  S
C112        N113   1.360       .  A
C112        N117   1.356       .  A
N113        C114   1.361       .  A
C114       C1463   1.489       .  S
C114        N115   1.362       .  A
N115        C116   1.360       .  A
C116       C1528   1.486       .  S
C116        N117   1.357       .  A
C118       C1920   1.493       .  S
C118        N119   1.362       .  A
C118        N123   1.366       .  A
N119        C120   1.357       .  A
C120       C1519   1.488       .  S
C120        N121   1.353       .  A
N121        C122   1.358       .  A
C122       C1435   1.497       .  S
C122        N123   1.365       .  A
C124       C1407   1.494       .  S
C124        N125   1.364       .  A
C124        N129   1.366       .  A
N125        C126   1.360       .  A
C126       C2163   1.477       .  S
C126        N127   1.353       .  A
N127        C128   1.354       .  A
C128       C1491   1.489       .  S
C128        N129   1.360       .  A
C130       C1379   1.495       .  S
C130        N131   1.357       .  A
C130        N135   1.366       .  A
N131        C132   1.357       .  A
C132       C1472   1.498       .  S
C132        N133   1.358       .  A
N133        C134   1.362       .  A
C134       C2051   1.496       .  S
C134        N135   1.367       .  A
O136        C144   1.267   1_545  A
O136       Co156   1.961       .  S
O137        C145   1.258   1_565  A
O137       Co157   1.968       .  S
O138        C146   1.265       .  A
O138       Co158   1.982       .  S
O139        C147   1.291   1_554  A
O139       Co159   2.082       .  S
O140        C146   1.272   1_554  A
O140       Co157   1.998       .  S
O141        C147   1.268       .  A
O141       Co156   1.924       .  S
O142        C145   1.265       .  A
O142       Co159   2.019       .  S
O143        C144   1.284       .  A
O143       Co158   2.050       .  S
C144       C1416   1.495       .  S
C145       C1304   1.493       .  S
C146       C1239   1.476       .  S
C147       C1332   1.497   1_556  S
O148        C161   1.290       .  A
O148       Co156   2.072   1_554  S
O149        C162   1.267       .  A
O149       Co157   1.995       .  S
O150        C163   1.257   1_565  A
O150       Co158   1.964       .  S
O151        C164   1.266   1_545  A
O151       Co159   1.963       .  S
O152        C164   1.285       .  A
O152       Co157   2.056       .  S
O153        C163   1.265       .  A
O153       Co156   2.025       .  S
O154        C161   1.268       .  A
O154       Co159   1.921       .  S
O155        C162   1.272       .  A
O155       Co158   1.994   1_554  S
Co156       O160   2.039   1_546  S
Co157       O160   2.042       .  S
Co158       O160   2.037   1_556  S
Co159       O160   2.041   1_545  S
C161       C1351   1.487       .  S
C162       C1211   1.487       .  S
C163       C1668   1.495       .  S
C164       C1267   1.497   1_565  S
C165       C1183   1.490       .  S
C165        N166   1.358       .  A
C165        N170   1.356       .  A
N166        C167   1.358       .  A
C167       C1155   1.483       .  S
C167        N168   1.362       .  A
N168        C169   1.363       .  A
C169       C1136   1.486       .  S
C169        N170   1.358       .  A
C171       C1855   1.493       .  S
C171        N172   1.368       .  A
C171        N176   1.361       .  A
N172        C173   1.366       .  A
C173       C1248   1.492       .  S
C173        N174   1.356       .  A
N174        C175   1.355       .  A
C175       C1192   1.491       .  S
C175        N176   1.356       .  A
C177       C1099   1.493       .  S
C177        N178   1.367       .  A
C177        N182   1.360       .  A
N178        C179   1.366       .  A
C179       C2256   1.477       .  S
C179        N180   1.358       .  A
N180        C181   1.355       .  A
C181       C1164   1.480       .  S
C181        N182   1.356       .  A
C183       C1071   1.494       .  S
C183        N184   1.367       .  A
C183        N188   1.359       .  A
N184        C185   1.367       .  A
C185       C1995   1.498       .  S
C185        N186   1.359       .  A
N186        C187   1.356       .  A
C187       C1127   1.483       .  S
C187        N188   1.357       .  A
C189       C1024   1.482       .  S
C189        N190   1.360       .  A
C189        N194   1.358       .  A
N190        C191   1.362       .  A
C191        C996   1.479       .  S
C191        N192   1.360       .  A
N192        C193   1.360       .  A
C193       C1052   1.494       .  S
C193        N194   1.360       .  A
C195       C2088   1.497       .  S
C195        N196   1.361       .  A
C195        N200   1.369       .  A
N196        C197   1.355       .  A
C197       C1043   1.495       .  S
C197        N198   1.353       .  A
N198        C199   1.360       .  A
C199        C968   1.504       .  S
C199        N200   1.368       .  A
C201        C940   1.488       .  S
C201        N202   1.359       .  A
C201        N206   1.364       .  A
N202        C203   1.356       .  A
C203       C1015   1.479       .  S
C203        N204   1.359       .  A
N204        C205   1.363       .  A
C205       C1780   1.497       .  S
C205        N206   1.364       .  A
C207       C2275   1.489       .  S
C207        N208   1.362       .  A
C207        N212   1.362       .  A
N208        C209   1.361       .  A
C209       C1276   1.485       .  S
C209        N210   1.358       .  A
N210        C211   1.357       .  A
C211        C987   1.484       .  S
C211        N212   1.359       .  A
O213        C221   1.290   1_556  A
O213       Co233   2.079       .  S
O214        C222   1.267       .  A
O214       Co234   1.996       .  S
O215        C223   1.269   1_655  A
O215       Co235   1.971       .  S
O216        C224   1.254   1_455  A
O216       Co236   1.962       .  S
O217        C223   1.283       .  A
O217       Co234   2.045       .  S
O218        C224   1.267       .  A
O218       Co233   2.037       .  S
O219        C222   1.262   1_556  A
O219       Co236   1.972       .  S
O220        C221   1.270       .  A
O220       Co235   1.917       .  S
C221       C1556   1.490       .  S
C222        C912   1.469       .  S
C223        C856   1.502       .  S
C224       C1080   1.499       .  S
O225        C238   1.267       .  A
O225       Co233   1.967   1_455  S
O226        C239   1.261       .  A
O226       Co234   1.976       .  S
O227        C240   1.294   1_554  A
O227       Co235   2.088       .  S
O228        C241   1.270       .  A
O228       Co236   1.997       .  S
O229        C241   1.270       .  A
O229       Co234   1.984   1_556  S
O230        C240   1.269       .  A
O230       Co233   1.899       .  S
O231        C238   1.281       .  A
O231       Co236   2.050       .  S
O232        C239   1.267   1_655  A
O232       Co235   2.032       .  S
Co233       O237   2.028   1_655  S
Co234       O237   2.046   1_554  S
Co235       O237   2.035   1_654  S
Co236       O237   2.040       .  S
C238        C819   1.506       .  S
C239        C875   1.507       .  S
C240        C931   1.488       .  S
C241       C1444   1.474       .  S
C242        C772   1.490       .  S
C242        N243   1.367       .  A
C242        N247   1.363       .  A
N243        C244   1.365       .  A
C244       C2228   1.493       .  S
C244        N245   1.358       .  A
N245        C246   1.358       .  A
C246        C791   1.492       .  S
C246        N247   1.362       .  A
C248        C800   1.494       .  S
C248        N249   1.361       .  A
C248        N253   1.362       .  A
N249        C250   1.361       .  A
C250        C735   1.496       .  S
C250        N251   1.358       .  A
N251        C252   1.356       .  A
C252        C716   1.479       .  S
C252        N253   1.359       .  A
C254       C1948   1.505       .  S
C254        N255   1.356       .  A
C254        N259   1.366       .  A
N255        C256   1.358       .  A
C256        C744   1.501       .  S
C256        N257   1.364       .  A
N257        C258   1.366       .  A
C258        C884   1.503       .  S
C258        N259   1.367       .  A
C260       C1715   1.491       .  S
C260        N261   1.362       .  A
C260        N265   1.366       .  A
N261        C262   1.359       .  A
C262        C707   1.479       .  S
C262        N263   1.355       .  A
N263        C264   1.358       .  A
C264       C1323   1.486       .  S
C264        N265   1.364       .  A
C266        C679   1.490       .  S
C266        N267   1.358       .  A
C266        N271   1.361       .  A
N267        C268   1.360       .  A
C268        C651   1.496       .  S
C268        N269   1.360       .  A
N269        C270   1.361       .  A
C270        C623   1.482       .  S
C270        N271   1.360       .  A
C272        C828   1.490       .  S
C272        N273   1.370       .  A
C272        N277   1.364       .  A
N273        C274   1.366       .  A
C274       C2032   1.502       .  S
C274        N275   1.355       .  A
N275        C276   1.354       .  A
C276        C688   1.497       .  S
C276        N277   1.358       .  A
C278       C1360   1.473       .  S
C278        N279   1.363       .  A
C278        N283   1.360       .  A
N279        C280   1.363       .  A
C280       C1752   1.482       .  S
C280        N281   1.355       .  A
N281        C282   1.352       .  A
C282        C660   1.472       .  S
C282        N283   1.356       .  A
C284        C595   1.499       .  S
C284        N285   1.365       .  A
C284        N289   1.362       .  A
N285        C286   1.363       .  A
C286       C2340   1.487       .  S
C286        N287   1.358       .  A
N287        C288   1.355       .  A
C288        C632   1.497       .  S
C288        N289   1.360       .  A
C290        C567   1.485       .  S
C290        N291   1.364       .  A
C290        N295   1.359       .  A
N291        C292   1.363       .  A
C292        C511   1.493       .  S
C292        N293   1.359       .  A
N293        C294   1.356       .  A
C294        C539   1.495       .  S
C294        N295   1.358       .  A
C296       C2359   1.491       .  S
C296        N297   1.364       .  A
C296        N301   1.359       .  A
N297        C298   1.364       .  A
C298        C492   1.476       .  S
C298        N299   1.360       .  A
N299        C300   1.359       .  A
C300        C576   1.492       .  S
C300        N301   1.354       .  A
C302        C847   1.497       .  S
C302        N303   1.363       .  A
C302        N307   1.366       .  A
N303        C304   1.359       .  A
C304        C548   1.487       .  S
C304        N305   1.355       .  A
N305        C306   1.357       .  A
C306       C1967   1.487       .  S
C306        N307   1.364       .  A
C308       C1220   1.492       .  S
C308        N309   1.358       .  A
C308        N313   1.365       .  A
N309        C310   1.355       .  A
C310        C520   1.485       .  S
C310        N311   1.358       .  A
N311        C312   1.361       .  A
C312       C1836   1.492       .  S
C312        N313   1.367       .  A
C314        C436   1.487       .  S
C314        N315   1.362       .  A
C314        N319   1.360       .  A
N315        C316   1.360       .  A
C316        C455   1.473       .  S
C316        N317   1.355       .  A
N317        C318   1.355       .  A
C318        C399   1.468       .  S
C318        N319   1.357       .  A
C320       C2312   1.490       .  S
C320        N321   1.359       .  A
C320        N325   1.363       .  A
N321        C322   1.355       .  A
C322        C464   1.476       .  S
C322        N323   1.356       .  A
N323        C324   1.358       .  A
C324       C1295   1.483       .  S
C324        N325   1.364       .  A
C326        C371   1.479       .  S
C326        N327   1.362       .  A
C326        N331   1.358       .  A
N327        C328   1.362       .  A
C328       C2144   1.487       .  S
C328        N329   1.359       .  A
N329        C330   1.360       .  A
C330        C427   1.493       .  S
C330        N331   1.359       .  A
C332       C1883   1.473       .  S
C332        N333   1.357       .  A
C332        N337   1.362       .  A
N333        C334   1.352       .  A
C334        C408   1.469       .  S
C334        N335   1.353       .  A
N335        C336   1.358       .  A
C336        C903   1.489       .  S
C336        N337   1.363       .  A
O338        C346   1.287   1_655  A
O338       Co358   2.069       .  S
O339        C347   1.269       .  A
O339       Co359   1.994       .  S
O340        C348   1.271       .  A
O340       Co360   1.972       .  S
O341        C349   1.265       .  A
O341       Co361   1.973   1_565  S
O342        C348   1.282   1_545  A
O342       Co359   2.041       .  S
O343        C349   1.267       .  A
O343       Co358   2.021       .  S
O344        C347   1.272   1_655  A
O344       Co361   1.995       .  S
O345        C346   1.272       .  A
O345       Co360   1.936       .  S
C346       C1584   1.496   1_455  S
C347       C1388   1.485       .  S
C348       C1108   1.496       .  S
C349        C604   1.494       .  S
O350        C363   1.272   1_565  A
O350       Co358   1.975       .  S
O351        C364   1.263       .  A
O351       Co359   1.977   1_565  S
O352        C365   1.288   1_455  A
O352       Co360   2.070       .  S
O353        C366   1.268       .  A
O353       Co361   1.994       .  S
O354        C366   1.271   1_455  A
O354       Co359   1.990       .  S
O355        C365   1.272       .  A
O355       Co358   1.937       .  S
O356        C363   1.281       .  A
O356       Co361   2.028       .  S
O357        C364   1.268       .  A
O357       Co360   2.024       .  S
Co358       O362   2.046   1_665  S
Co359       O362   2.040       .  S
Co360       O362   2.039   1_565  S
Co361       O362   2.043   1_655  S
C363        C483   1.498   1_545  S
C364        C763   1.501       .  S
C365        C380   1.497   1_655  S
C366        C959   1.478       .  S
C367        C368   1.402       .  A
C367        C372   1.405       .  A
C367        H377   1.084       .  S
C368        C373   1.486       .  S
C368        C369   1.413       .  A
C369        C370   1.401       .  A
C369        N374   1.429       .  S
C370        C371   1.401       .  A
C370        H375   1.084       .  S
C371        C372   1.413       .  A
C372        N376   1.430       .  S
C373        C378   1.405       .  A
C373        C382   1.403   1_455  A
N374        O389   1.261       .  A
N374        O390   1.262       .  A
N376        O387   1.262       .  A
N376        O388   1.262       .  A
C378        C379   1.400       .  A
C378        N383   1.432       .  S
C379        C380   1.413       .  A
C379        H384   1.083       .  S
C380        C381   1.417   1_455  A
C381        C382   1.409       .  A
C381        N385   1.429       .  S
C382        H386   1.084       .  S
N383        O393   1.262       .  A
N383        O394   1.261       .  A
N385        O391   1.263       .  A
N385        O392   1.262       .  A
C395        C396   1.405       .  A
C395        C400   1.400       .  A
C395        H405   1.084       .  S
C396        C401   1.484       .  S
C396        C397   1.412       .  A
C397        C398   1.400       .  A
C397        N402   1.431       .  S
C398        C399   1.400       .  A
C398        H403   1.084       .  S
C399        C400   1.407       .  A
C400        N404   1.430       .  S
C401        C406   1.413       .  A
C401        C410   1.404       .  A
N402        O417   1.262       .  A
N402        O418   1.262       .  A
N404        O415   1.262       .  A
N404        O416   1.262       .  A
C406        C407   1.402       .  A
C406        N411   1.431       .  S
C407        C408   1.402       .  A
C407        H412   1.084       .  S
C408        C409   1.407       .  A
C409        C410   1.397       .  A
C409        N413   1.430       .  S
C410        H414   1.084       .  S
N411        O421   1.262       .  A
N411        O422   1.262       .  A
N413        O419   1.262       .  A
N413        O420   1.262       .  A
C423        C424   1.399       .  A
C423        C428   1.402       .  A
C423        H433   1.084       .  S
C424        C429   1.479       .  S
C424        C425   1.405       .  A
C425        C426   1.400       .  A
C425        N430   1.429       .  S
C426        C427   1.410       .  A
C426        H431   1.083       .  S
C427        C428   1.419       .  A
C428        N432   1.429       .  S
C429        C434   1.406       .  A
C429        C438   1.400       .  A
N430        O445   1.262       .  A
N430        O446   1.262       .  A
N432        O443   1.262       .  A
N432        O444   1.262       .  A
C434        C435   1.401       .  A
C434        N439   1.429       .  S
C435        C436   1.409       .  A
C435        H440   1.084       .  S
C436        C437   1.415       .  A
C437        C438   1.401       .  A
C437        N441   1.428       .  S
C438        H442   1.084       .  S
N439        O449   1.262       .  A
N439        O450   1.262       .  A
N441        O447   1.262       .  A
N441        O448   1.262       .  A
C451        C452   1.407       .  A
C451        C456   1.403       .  A
C451        H461   1.083       .  S
C452        C457   1.491       .  S
C452        C453   1.414       .  A
C453        C454   1.400       .  A
C453        N458   1.432       .  S
C454        C455   1.401       .  A
C454        H459   1.084       .  S
C455        C456   1.408       .  A
C456        N460   1.432       .  S
C457        C462   1.413       .  A
C457        C466   1.407       .  A
N458        O473   1.262       .  A
N458        O474   1.262       .  A
N460        O471   1.262       .  A
N460        O472   1.262       .  A
C462        C463   1.401       .  A
C462        N467   1.430       .  S
C463        C464   1.402       .  A
C463        H468   1.084       .  S
C464        C465   1.409       .  A
C465        C466   1.400       .  A
C465        N469   1.430       .  S
C466        H470   1.083       .  S
N467        O477   1.262       .  A
N467        O478   1.262       .  A
N469        O475   1.262       .  A
N469        O476   1.262       .  A
C479        C480   1.406       .  A
C479        C484   1.406       .  A
C479        H489   1.084       .  S
C480        C485   1.493       .  S
C480        C481   1.410   1_565  A
C481        C482   1.400       .  A
C481        N486   1.430       .  S
C482        C483   1.407   1_545  A
C482        H487   1.080       .  S
C483        C484   1.415       .  A
C484        N488   1.428       .  S
C485        C490   1.417       .  A
C485        C494   1.407       .  A
N486        O501   1.262       .  A
N486        O502   1.261       .  A
N488        O499   1.261       .  A
N488        O500   1.262       .  A
C490        C491   1.409       .  A
C490        N495   1.433   1_565  S
C491        C492   1.402       .  A
C491        H496   1.084       .  S
C492        C493   1.405       .  A
C493        C494   1.399       .  A
C493        N497   1.429       .  S
C494        H498   1.084       .  S
N495        O505   1.262       .  A
N495        O506   1.263       .  A
N497        O503   1.262       .  A
N497        O504   1.262       .  A
C507        C508   1.403       .  A
C507        C512   1.405       .  A
C507        H517   1.084       .  S
C508        C513   1.484       .  S
C508        C509   1.406       .  A
C509        C510   1.400       .  A
C509        N514   1.429       .  S
C510        C511   1.409       .  A
C510        H515   1.082       .  S
C511        C512   1.415       .  A
C512        N516   1.428       .  S
C513        C518   1.409       .  A
C513        C522   1.401       .  A
N514        O529   1.262       .  A
N514        O530   1.262       .  A
N516        O527   1.262       .  A
N516        O528   1.262       .  A
C518        C519   1.402       .  A
C518        N523   1.428       .  S
C519        C520   1.405       .  A
C519        H524   1.083       .  S
C520        C521   1.415       .  A
C521        C522   1.402       .  A
C521        N525   1.430       .  S
C522        H526   1.084       .  S
N523        O533   1.262       .  A
N523        O534   1.262       .  A
N525        O531   1.262       .  A
N525        O532   1.262       .  A
C535        C536   1.397       .  A
C535        C540   1.399       .  A
C535        H545   1.084       .  S
C536        C541   1.478       .  S
C536        C537   1.406       .  A
C537        C538   1.402       .  A
C537        N542   1.429       .  S
C538        C539   1.410       .  A
C538        H543   1.083       .  S
C539        C540   1.420       .  A
C540        N544   1.428       .  S
C541        C546   1.406       .  A
C541        C550   1.401       .  A
N542        O557   1.262       .  A
N542        O558   1.262       .  A
N544        O555   1.262       .  A
N544        O556   1.262       .  A
C546        C547   1.401       .  A
C546        N551   1.430       .  S
C547        C548   1.408       .  A
C547        H552   1.084       .  S
C548        C549   1.414       .  A
C549        C550   1.402       .  A
C549        N553   1.429       .  S
C550        H554   1.084       .  S
N551        O561   1.262       .  A
N551        O562   1.262       .  A
N553        O559   1.262       .  A
N553        O560   1.262       .  A
C563        C564   1.402       .  A
C563        C568   1.404       .  A
C563        H573   1.084       .  S
C564        C569   1.483       .  S
C564        C565   1.408       .  A
C565        C566   1.403       .  A
C565        N570   1.431       .  S
C566        C567   1.407       .  A
C566        H571   1.084       .  S
C567        C568   1.413       .  A
C568        N572   1.431       .  S
C569        C574   1.409       .  A
C569        C578   1.398       .  A
N570        O585   1.262       .  A
N570        O586   1.262       .  A
N572        O583   1.262       .  A
N572        O584   1.262       .  A
C574        C575   1.403       .  A
C574        N579   1.429       .  S
C575        C576   1.407       .  A
C575        H580   1.084       .  S
C576        C577   1.419       .  A
C577        C578   1.401       .  A
C577        N581   1.429       .  S
C578        H582   1.084       .  S
N579        O589   1.262       .  A
N579        O590   1.262       .  A
N581        O587   1.262       .  A
N581        O588   1.262       .  A
C591        C592   1.406       .  A
C591        C596   1.402       .  A
C591        H601   1.084       .  S
C592        C597   1.506       .  S
C592        C593   1.422       .  A
C593        C594   1.410       .  A
C593        N598   1.434       .  S
C594        C595   1.407       .  A
C594        H599   1.083       .  S
C595        C596   1.416       .  A
C596        N600   1.431       .  S
C597        C602   1.418       .  A
C597        C606   1.408   1_545  A
N598        O613   1.261   1_545  A
N598        O614   1.262       .  A
N600        O611   1.262       .  A
N600        O612   1.262       .  A
C602        C603   1.402       .  A
C602        N607   1.431       .  S
C603        C604   1.404   1_545  A
C603        H608   1.084       .  S
C604        C605   1.413       .  A
C605        C606   1.410       .  A
C605        N609   1.428       .  S
C606        H610   1.079       .  S
N607        O617   1.262       .  A
N607        O618   1.262       .  A
N609        O615   1.261       .  A
N609        O616   1.262       .  A
C619        C620   1.400       .  A
C619        C624   1.403       .  A
C619        H629   1.084       .  S
C620        C625   1.481       .  S
C620        C621   1.408       .  A
C621        C622   1.404       .  A
C621        N626   1.429       .  S
C622        C623   1.406       .  A
C622        H627   1.084       .  S
C623        C624   1.414       .  A
C624        N628   1.433       .  S
C625        C630   1.406       .  A
C625        C634   1.399       .  A
N626        O641   1.262       .  A
N626        O642   1.262       .  A
N628        O639   1.262       .  A
N628        O640   1.262       .  A
C630        C631   1.402       .  A
C630        N635   1.429       .  S
C631        C632   1.409       .  A
C631        H636   1.082       .  S
C632        C633   1.421       .  A
C633        C634   1.403       .  A
C633        N637   1.429       .  S
C634        H638   1.084       .  S
N635        O645   1.262       .  A
N635        O646   1.262       .  A
N637        O643   1.262       .  A
N637        O644   1.262       .  A
C647        C648   1.400       .  A
C647        C652   1.404       .  A
C647        H657   1.084       .  S
C648        C653   1.479       .  S
C648        C649   1.405       .  A
C649        C650   1.398       .  A
C649        N654   1.430       .  S
C650        C651   1.410       .  A
C650        H655   1.082       .  S
C651        C652   1.421       .  A
C652        N656   1.430       .  S
C653        C658   1.408       .  A
C653        C662   1.403       .  A
N654        O669   1.262       .  A
N654        O670   1.262       .  A
N656        O667   1.262       .  A
N656        O668   1.262       .  A
C658        C659   1.399       .  A
C658        N663   1.428       .  S
C659        C660   1.403       .  A
C659        H664   1.084       .  S
C660        C661   1.408       .  A
C661        C662   1.400       .  A
C661        N665   1.429       .  S
C662        H666   1.084       .  S
N663        O673   1.262       .  A
N663        O674   1.262       .  A
N665        O671   1.262       .  A
N665        O672   1.262       .  A
C675        C676   1.399       .  A
C675        C680   1.402       .  A
C675        H685   1.084       .  S
C676        C681   1.482       .  S
C676        C677   1.408       .  A
C677        C678   1.402       .  A
C677        N682   1.429       .  S
C678        C679   1.407       .  A
C678        H683   1.083       .  S
C679        C680   1.418       .  A
C680        N684   1.429       .  S
C681        C686   1.405       .  A
C681        C690   1.403       .  A
N682        O697   1.262       .  A
N682        O698   1.262       .  A
N684        O695   1.262       .  A
N684        O696   1.262       .  A
C686        C687   1.396       .  A
C686        N691   1.431       .  S
C687        C688   1.410       .  A
C687        H692   1.083       .  S
C688        C689   1.418       .  A
C689        C690   1.408       .  A
C689        N693   1.428       .  S
C690        H694   1.084       .  S
N691        O701   1.262       .  A
N691        O702   1.262       .  A
N693        O699   1.262       .  A
N693        O700   1.262       .  A
C703        C704   1.408       .  A
C703        C708   1.404       .  A
C703        H713   1.083       .  S
C704        C709   1.496       .  S
C704        C705   1.414       .  A
C705        C706   1.403       .  A
C705        N710   1.431       .  S
C706        C707   1.402       .  A
C706        H711   1.084       .  S
C707        C708   1.409       .  A
C708        N712   1.431       .  S
C709        C714   1.414       .  A
C709        C718   1.408       .  A
N710        O725   1.262       .  A
N710        O726   1.262       .  A
N712        O723   1.262       .  A
N712        O724   1.262       .  A
C714        C715   1.402       .  A
C714        N719   1.431       .  S
C715        C716   1.402       .  A
C715        H720   1.084       .  S
C716        C717   1.409       .  A
C717        C718   1.403       .  A
C717        N721   1.430       .  S
C718        H722   1.083       .  S
N719        O729   1.262       .  A
N719        O730   1.262       .  A
N721        O727   1.262       .  A
N721        O728   1.262       .  A
C731        C732   1.398       .  A
C731        C736   1.399       .  A
C731        H741   1.084       .  S
C732        C737   1.482       .  S
C732        C733   1.408       .  A
C733        C734   1.404       .  A
C733        N738   1.429       .  S
C734        C735   1.410       .  A
C734        H739   1.082       .  S
C735        C736   1.419       .  A
C736        N740   1.428       .  S
C737        C742   1.406       .  A
C737        C746   1.401       .  A
N738        O753   1.262       .  A
N738        O754   1.262       .  A
N740        O751   1.262       .  A
N740        O752   1.262       .  A
C742        C743   1.401       .  A
C742        N747   1.432       .  S
C743        C744   1.412       .  A
C743        H748   1.078       .  S
C744        C745   1.416       .  A
C745        C746   1.404       .  A
C745        N749   1.426       .  S
C746        H750   1.083       .  S
N747        O757   1.262       .  A
N747        O758   1.262       .  A
N749        O755   1.262       .  A
N749        O756   1.262       .  A
C759        C760   1.403   1_565  A
C759        C764   1.406       .  A
C759        H769   1.084       .  S
C760        C765   1.495       .  S
C760        C761   1.409       .  A
C761        C762   1.406       .  A
C761        N766   1.430       .  S
C762        C763   1.411   1_545  A
C762        H767   1.083       .  S
C763        C764   1.418       .  A
C764        N768   1.428       .  S
C765        C770   1.413       .  A
C765        C774   1.405       .  A
N766        O781   1.262       .  A
N766        O782   1.262       .  A
N768        O779   1.262       .  A
N768        O780   1.260       .  A
C770        C771   1.405       .  A
C770        N775   1.433       .  S
C771        C772   1.402       .  A
C771        H776   1.084       .  S
C772        C773   1.416       .  A
C773        C774   1.410       .  A
C773        N777   1.433       .  S
C774        H778   1.084       .  S
N775        O785   1.262       .  A
N775        O786   1.263       .  A
N777        O783   1.262       .  A
N777        O784   1.262       .  A
C787        C788   1.403       .  A
C787        C792   1.403       .  A
C787        H797   1.084       .  S
C788        C793   1.486       .  S
C788        C789   1.410       .  A
C789        C790   1.404       .  A
C789        N794   1.434       .  S
C790        C791   1.409       .  A
C790        H795   1.083       .  S
C791        C792   1.414       .  A
C792        N796   1.429       .  S
C793        C798   1.410       .  A
C793        C802   1.400       .  A
N794        O809   1.262       .  A
N794        O810   1.262       .  A
N796        O807   1.262       .  A
N796        O808   1.262       .  A
C798        C799   1.404       .  A
C798        N803   1.430       .  S
C799        C800   1.409       .  A
C799        H804   1.083       .  S
C800        C801   1.418       .  A
C801        C802   1.402       .  A
C801        N805   1.429       .  S
C802        H806   1.084       .  S
N803        O813   1.262       .  A
N803        O814   1.262       .  A
N805        O811   1.262       .  A
N805        O812   1.262       .  A
C815        C816   1.402       .  A
C815        C820   1.407       .  A
C815        H825   1.083       .  S
C816        C821   1.496       .  S
C816        C817   1.407   1_655  A
C817        C818   1.408       .  A
C817        N822   1.430       .  S
C818        C819   1.413       .  A
C818        H823   1.082       .  S
C819        C820   1.422   1_455  A
C820        N824   1.431       .  S
C821        C826   1.408       .  A
C821        C830   1.406       .  A
N822        O837   1.260       .  A
N822        O838   1.262       .  A
N824        O835   1.262       .  A
N824        O836   1.262       .  A
C826        C827   1.405       .  A
C826        N831   1.428       .  S
C827        C828   1.407       .  A
C827        H832   1.083       .  S
C828        C829   1.413       .  A
C829        C830   1.408       .  A
C829        N833   1.431       .  S
C830        H834   1.081       .  S
N831        O841   1.262       .  A
N831        O842   1.262   1_655  A
N833        O839   1.262       .  A
N833        O840   1.262       .  A
C843        C844   1.405       .  A
C843        C848   1.406       .  A
C843        H853   1.084       .  S
C844        C849   1.494       .  S
C844        C845   1.409       .  A
C845        C846   1.404       .  A
C845        N850   1.430       .  S
C846        C847   1.409       .  A
C846        H851   1.083       .  S
C847        C848   1.417       .  A
C848        N852   1.430       .  S
C849        C854   1.416   1_655  A
C849        C858   1.403       .  A
N850        O865   1.262       .  A
N850        O866   1.262       .  A
N852        O863   1.262       .  A
N852        O864   1.262       .  A
C854        C855   1.412       .  A
C854        N859   1.444       .  S
C855        C856   1.410       .  A
C855        H860   1.082       .  S
C856        C857   1.419   1_455  A
C857        C858   1.405       .  A
C857        N861   1.431       .  S
C858        H862   1.084       .  S
N859        O869   1.262       .  A
N859        O870   1.263       .  A
N861        O867   1.262       .  A
N861        O868   1.262       .  A
C871        C872   1.406       .  A
C871        C876   1.411   1_455  A
C871        H881   1.084   1_455  S
C872        C877   1.504       .  S
C872        C873   1.412       .  A
C873        C874   1.407       .  A
C873        N878   1.429       .  S
C874        C875   1.410       .  A
C874        H879   1.083       .  S
C875        C876   1.419   1_455  A
C876        N880   1.429       .  S
C877        C882   1.411       .  A
C877        C886   1.404       .  A
N878        O893   1.262       .  A
N878        O894   1.262       .  A
N880        O891   1.261       .  A
N880        O892   1.261       .  A
C882        C883   1.408       .  A
C882        N887   1.426       .  S
C883        C884   1.407       .  A
C883        H888   1.084       .  S
C884        C885   1.421       .  A
C885        C886   1.411       .  A
C885        N889   1.434       .  S
C886        H890   1.083       .  S
N887        O897   1.262       .  A
N887        O898   1.261       .  A
N889        O895   1.262       .  A
N889        O896   1.263       .  A
C899        C900   1.401       .  A
C899        C904   1.402       .  A
C899        H909   1.084       .  S
C900        C905   1.474       .  S
C900        C901   1.402       .  A
C901        C902   1.398       .  A
C901        N906   1.431       .  S
C902        C903   1.411       .  A
C902        H907   1.083       .  S
C903        C904   1.416       .  A
C904        N908   1.429       .  S
C905        C910   1.406   1_554  A
C905        C914   1.401       .  A
N906        O921   1.262       .  A
N906        O922   1.262       .  A
N908        O919   1.262       .  A
N908        O920   1.262       .  A
C910        C911   1.402       .  A
C910        N915   1.428       .  S
C911        C912   1.405   1_556  A
C911        H916   1.084       .  S
C912        C913   1.407       .  A
C913        C914   1.397       .  A
C913        N917   1.428       .  S
C914        H918   1.084       .  S
N915        O925   1.262       .  A
N915        O926   1.262       .  A
N917        O923   1.261       .  A
N917        O924   1.262       .  A
C927        C928   1.402       .  A
C927        C932   1.401       .  A
C927        H937   1.084       .  S
C928        C933   1.485       .  S
C928        C929   1.407   1_554  A
C929        C930   1.402       .  A
C929        N934   1.429       .  S
C930        C931   1.408       .  A
C930        H935   1.083       .  S
C931        C932   1.415   1_556  A
C932        N936   1.428       .  S
C933        C938   1.406       .  A
C933        C942   1.404       .  A
N934        O949   1.262       .  A
N934        O950   1.262       .  A
N936        O947   1.261       .  A
N936        O948   1.261       .  A
C938        C939   1.401       .  A
C938        N943   1.430       .  S
C939        C940   1.407       .  A
C939        H944   1.084       .  S
C940        C941   1.415       .  A
C941        C942   1.406       .  A
C941        N945   1.433       .  S
C942        H946   1.084       .  S
N943        O953   1.262       .  A
N943        O954   1.262   1_554  A
N945        O951   1.263       .  A
N945        O952   1.262       .  A
C955        C956   1.401       .  A
C955        C960   1.396       .  A
C955        H965   1.084       .  S
C956        C961   1.490       .  S
C956        C957   1.411   1_655  A
C957        C958   1.408       .  A
C957        N962   1.428       .  S
C958        C959   1.405   1_455  A
C958        H963   1.084       .  S
C959        C960   1.409       .  A
C960        N964   1.425       .  S
C961        C966   1.406       .  A
C961        C970   1.406       .  A
N962        O977   1.261       .  A
N962        O978   1.261       .  A
N964        O975   1.261       .  A
N964        O976   1.262       .  A
C966        C967   1.396       .  A
C966        N971   1.431       .  S
C967        C968   1.411       .  A
C967        H972   1.078       .  S
C968        C969   1.418       .  A
C969        C970   1.410       .  A
C969        N973   1.428       .  S
C970        H974   1.083       .  S
N971        O981   1.262       .  A
N971        O982   1.262       .  A
N973        O979   1.262       .  A
N973        O980   1.262       .  A
C983        C984   1.409       .  A
C983        C988   1.405       .  A
C983        H993   1.083       .  S
C984        C989   1.499       .  S
C984        C985   1.416       .  A
C985        C986   1.402       .  A
C985        N990   1.431       .  S
C986        C987   1.403       .  A
C986        H991   1.084       .  S
C987        C988   1.410       .  A
C988        N992   1.430       .  S
C989        C994   1.416       .  A
C989        C998   1.408       .  A
N990       O1005   1.262       .  A
N990       O1006   1.262       .  A
N992       O1003   1.262       .  A
N992       O1004   1.262       .  A
C994        C995   1.405       .  A
C994        N999   1.431       .  S
C995        C996   1.402       .  A
C995       H1000   1.084       .  S
C996        C997   1.408       .  A
C997        C998   1.402       .  A
C997       N1001   1.430       .  S
C998       H1002   1.083       .  S
N999       O1009   1.262       .  A
N999       O1010   1.262       .  A
N1001      O1007   1.262       .  A
N1001      O1008   1.262       .  A
C1011      C1012   1.408       .  A
C1011      C1016   1.404       .  A
C1011      H1021   1.083       .  S
C1012      C1017   1.497       .  S
C1012      C1013   1.415       .  A
C1013      C1014   1.403       .  A
C1013      N1018   1.430       .  S
C1014      C1015   1.402       .  A
C1014      H1019   1.084       .  S
C1015      C1016   1.408       .  A
C1016      N1020   1.430       .  S
C1017      C1022   1.415       .  A
C1017      C1026   1.406       .  A
N1018      O1033   1.262       .  A
N1018      O1034   1.262       .  A
N1020      O1031   1.262       .  A
N1020      O1032   1.262       .  A
C1022      C1023   1.405       .  A
C1022      N1027   1.431       .  S
C1023      C1024   1.403       .  A
C1023      H1028   1.084       .  S
C1024      C1025   1.411       .  A
C1025      C1026   1.403       .  A
C1025      N1029   1.431       .  S
C1026      H1030   1.083       .  S
N1027      O1037   1.262       .  A
N1027      O1038   1.262       .  A
N1029      O1035   1.262       .  A
N1029      O1036   1.262       .  A
C1039      C1040   1.398       .  A
C1039      C1044   1.402       .  A
C1039      H1049   1.084       .  S
C1040      C1045   1.479       .  S
C1040      C1041   1.405       .  A
C1041      C1042   1.402       .  A
C1041      N1046   1.428       .  S
C1042      C1043   1.410       .  A
C1042      H1047   1.083       .  S
C1043      C1044   1.421       .  A
C1044      N1048   1.430       .  S
C1045      C1050   1.405       .  A
C1045      C1054   1.400       .  A
N1046      O1061   1.262       .  A
N1046      O1062   1.262       .  A
N1048      O1059   1.262       .  A
N1048      O1060   1.262       .  A
C1050      C1051   1.400       .  A
C1050      N1055   1.429       .  S
C1051      C1052   1.410       .  A
C1051      H1056   1.083       .  S
C1052      C1053   1.418       .  A
C1053      C1054   1.403       .  A
C1053      N1057   1.429       .  S
C1054      H1058   1.084       .  S
N1055      O1065   1.262       .  A
N1055      O1066   1.262       .  A
N1057      O1063   1.262       .  A
N1057      O1064   1.262       .  A
C1067      C1068   1.411       .  A
C1067      C1072   1.411       .  A
C1067      H1077   1.048       .  S
C1068      C1073   1.503       .  S
C1068      C1069   1.412       .  A
C1069      C1070   1.407       .  A
C1069      N1074   1.431       .  S
C1070      C1071   1.410       .  A
C1070      H1075   1.074       .  S
C1071      C1072   1.410       .  A
C1072      N1076   1.430       .  S
C1073      C1078   1.414   1_455  A
C1073      C1082   1.404       .  A
N1074      O1089   1.262       .  A
N1074      O1090   1.262   1_455  A
N1076      O1087   1.261       .  A
N1076      O1088   1.262       .  A
C1078      C1079   1.410       .  A
C1078      N1083   1.429       .  S
C1079      C1080   1.407       .  A
C1079      H1084   1.082       .  S
C1080      C1081   1.420   1_655  A
C1081      C1082   1.404       .  A
C1081      N1085   1.431       .  S
C1082      H1086   1.081       .  S
N1083      O1093   1.261       .  A
N1083      O1094   1.262       .  A
N1085      O1091   1.262       .  A
N1085      O1092   1.262       .  A
C1095      C1096   1.406       .  A
C1095      C1100   1.409       .  A
C1095      H1105   1.083       .  S
C1096      C1101   1.491       .  S
C1096      C1097   1.406       .  A
C1097      C1098   1.402       .  A
C1097      N1102   1.429       .  S
C1098      C1099   1.409       .  A
C1098      H1103   1.084       .  S
C1099      C1100   1.413       .  A
C1100      N1104   1.429       .  S
C1101      C1106   1.409   1_565  A
C1101      C1110   1.400       .  A
N1102      O1117   1.262       .  A
N1102      O1118   1.262       .  A
N1104      O1115   1.262       .  A
N1104      O1116   1.262       .  A
C1106      C1107   1.410       .  A
C1106      N1111   1.432       .  S
C1107      C1108   1.410   1_545  A
C1107      H1112   1.083       .  S
C1108      C1109   1.418       .  A
C1109      C1110   1.403       .  A
C1109      N1113   1.428       .  S
C1110      H1114   1.084       .  S
N1111      O1121   1.261       .  A
N1111      O1122   1.262       .  A
N1113      O1119   1.262       .  A
N1113      O1120   1.262       .  A
C1123      C1124   1.403       .  A
C1123      C1128   1.402       .  A
C1123      H1133   1.084       .  S
C1124      C1129   1.489       .  S
C1124      C1125   1.414       .  A
C1125      C1126   1.404       .  A
C1125      N1130   1.432       .  S
C1126      C1127   1.405       .  A
C1126      H1131   1.084       .  S
C1127      C1128   1.414       .  A
C1128      N1132   1.434       .  S
C1129      C1134   1.413       .  A
C1129      C1138   1.406       .  A
N1130      O1145   1.262       .  A
N1130      O1146   1.263       .  A
N1132      O1143   1.262       .  A
N1132      O1144   1.262       .  A
C1134      C1135   1.403       .  A
C1134      N1139   1.434       .  S
C1135      C1136   1.407       .  A
C1135      H1140   1.083       .  S
C1136      C1137   1.410       .  A
C1137      C1138   1.402       .  A
C1137      N1141   1.429       .  S
C1138      H1142   1.084       .  S
N1139      O1149   1.262       .  A
N1139      O1150   1.263       .  A
N1141      O1147   1.262       .  A
N1141      O1148   1.262       .  A
C1151      C1152   1.406       .  A
C1151      C1156   1.400       .  A
C1151      H1161   1.082       .  S
C1152      C1157   1.500       .  S
C1152      C1153   1.419       .  A
C1153      C1154   1.406       .  A
C1153      N1158   1.432       .  S
C1154      C1155   1.402       .  A
C1154      H1159   1.084       .  S
C1155      C1156   1.412       .  A
C1156      N1160   1.430       .  S
C1157      C1162   1.419       .  A
C1157      C1166   1.408       .  A
N1158      O1173   1.262       .  A
N1158      O1174   1.262       .  A
N1160      O1171   1.262       .  A
N1160      O1172   1.262       .  A
C1162      C1163   1.404       .  A
C1162      N1167   1.432       .  S
C1163      C1164   1.402       .  A
C1163      H1168   1.084       .  S
C1164      C1165   1.409       .  A
C1165      C1166   1.401       .  A
C1165      N1169   1.429       .  S
C1166      H1170   1.083       .  S
N1167      O1177   1.262       .  A
N1167      O1178   1.262       .  A
N1169      O1175   1.262       .  A
N1169      O1176   1.262       .  A
C1179      C1180   1.398       .  A
C1179      C1184   1.399       .  A
C1179      H1189   1.084       .  S
C1180      C1185   1.474       .  S
C1180      C1181   1.404       .  A
C1181      C1182   1.400       .  A
C1181      N1186   1.429       .  S
C1182      C1183   1.409       .  A
C1182      H1187   1.083       .  S
C1183      C1184   1.419       .  A
C1184      N1188   1.429       .  S
C1185      C1190   1.403       .  A
C1185      C1194   1.400       .  A
N1186      O1201   1.262       .  A
N1186      O1202   1.262       .  A
N1188      O1199   1.262       .  A
N1188      O1200   1.262       .  A
C1190      C1191   1.396       .  A
C1190      N1195   1.429       .  S
C1191      C1192   1.409       .  A
C1191      H1196   1.081       .  S
C1192      C1193   1.418       .  A
C1193      C1194   1.404       .  A
C1193      N1197   1.429       .  S
C1194      H1198   1.083       .  S
N1195      O1205   1.262       .  A
N1195      O1206   1.262       .  A
N1197      O1203   1.262       .  A
N1197      O1204   1.262       .  A
C1207      C1208   1.397       .  A
C1207      C1212   1.400       .  A
C1207      H1217   1.084       .  S
C1208      C1213   1.484       .  S
C1208      C1209   1.408       .  A
C1209      C1210   1.408       .  A
C1209      N1214   1.428   1_554  S
C1210      C1211   1.409       .  A
C1210      H1215   1.083   1_554  S
C1211      C1212   1.417       .  A
C1212      N1216   1.430       .  S
C1213      C1218   1.406       .  A
C1213      C1222   1.404       .  A
N1214      O1229   1.262       .  A
N1214      O1230   1.261       .  A
N1216      O1227   1.262       .  A
N1216      O1228   1.262       .  A
C1218      C1219   1.402       .  A
C1218      N1223   1.430       .  S
C1219      C1220   1.409       .  A
C1219      H1224   1.083       .  S
C1220      C1221   1.414       .  A
C1221      C1222   1.406       .  A
C1221      N1225   1.428       .  S
C1222      H1226   1.084       .  S
N1223      O1233   1.262       .  A
N1223      O1234   1.262       .  A
N1225      O1231   1.262       .  A
N1225      O1232   1.262       .  A
C1235      C1236   1.404       .  A
C1235      C1240   1.406   1_556  A
C1235      H1245   1.084   1_556  S
C1236      C1241   1.484       .  S
C1236      C1237   1.408       .  A
C1237      C1238   1.401       .  A
C1237      N1242   1.429       .  S
C1238      C1239   1.405       .  A
C1238      H1243   1.084       .  S
C1239      C1240   1.411   1_556  A
C1240      N1244   1.429       .  S
C1241      C1246   1.410       .  A
C1241      C1250   1.397       .  A
N1242      O1257   1.262       .  A
N1242      O1258   1.262       .  A
N1244      O1255   1.262       .  A
N1244      O1256   1.262       .  A
C1246      C1247   1.407       .  A
C1246      N1251   1.429       .  S
C1247      C1248   1.407       .  A
C1247      H1252   1.084       .  S
C1248      C1249   1.421       .  A
C1249      C1250   1.401       .  A
C1249      N1253   1.433       .  S
C1250      H1254   1.084       .  S
N1251      O1261   1.262       .  A
N1251      O1262   1.262       .  A
N1253      O1259   1.262       .  A
N1253      O1260   1.263       .  A
C1263      C1264   1.395       .  A
C1263      C1268   1.400       .  A
C1263      H1273   1.084       .  S
C1264      C1269   1.482       .  S
C1264      C1265   1.406   1_545  A
C1265      C1266   1.407       .  A
C1265      N1270   1.429       .  S
C1266      C1267   1.409   1_565  A
C1266      H1271   1.079       .  S
C1267      C1268   1.423       .  A
C1268      N1272   1.430       .  S
C1269      C1274   1.407       .  A
C1269      C1278   1.402       .  A
N1270      O1285   1.260       .  A
N1270      O1286   1.262       .  A
N1272      O1283   1.262       .  A
N1272      O1284   1.262       .  A
C1274      C1275   1.402       .  A
C1274      N1279   1.429       .  S
C1275      C1276   1.407       .  A
C1275      H1280   1.084       .  S
C1276      C1277   1.413       .  A
C1277      C1278   1.402       .  A
C1277      N1281   1.429       .  S
C1278      H1282   1.082       .  S
N1279      O1289   1.262       .  A
N1279      O1290   1.262       .  A
N1281      O1287   1.262       .  A
N1281      O1288   1.262       .  A
C1291      C1292   1.403       .  A
C1291      C1296   1.404       .  A
C1291      H1301   1.083       .  S
C1292      C1297   1.490       .  S
C1292      C1293   1.412       .  A
C1293      C1294   1.401       .  A
C1293      N1298   1.428       .  S
C1294      C1295   1.400       .  A
C1294      H1299   1.084       .  S
C1295      C1296   1.414       .  A
C1296      N1300   1.430       .  S
C1297      C1302   1.409       .  A
C1297      C1306   1.404   1_565  A
N1298      O1313   1.261       .  A
N1298      O1314   1.263       .  A
N1300      O1311   1.262       .  A
N1300      O1312   1.262       .  A
C1302      C1303   1.401       .  A
C1302      N1307   1.430       .  S
C1303      C1304   1.410   1_565  A
C1303      H1308   1.084       .  S
C1304      C1305   1.416       .  A
C1305      C1306   1.403       .  A
C1305      N1309   1.429       .  S
C1306      H1310   1.084       .  S
N1307      O1317   1.262       .  A
N1307      O1318   1.262       .  A
N1309      O1315   1.261       .  A
N1309      O1316   1.262       .  A
C1319      C1320   1.407       .  A
C1319      C1324   1.407       .  A
C1319      H1329   1.084       .  S
C1320      C1325   1.491       .  S
C1320      C1321   1.408       .  A
C1321      C1322   1.401       .  A
C1321      N1326   1.428       .  S
C1322      C1323   1.406       .  A
C1322      H1327   1.084       .  S
C1323      C1324   1.411       .  A
C1324      N1328   1.429       .  S
C1325      C1330   1.408   1_554  A
C1325      C1334   1.401       .  A
N1326      O1341   1.262       .  A
N1326      O1342   1.262       .  A
N1328      O1339   1.262       .  A
N1328      O1340   1.262       .  A
C1330      C1331   1.408       .  A
C1330      N1335   1.430       .  S
C1331      C1332   1.411   1_556  A
C1331      H1336   1.083       .  S
C1332      C1333   1.417       .  A
C1333      C1334   1.403       .  A
C1333      N1337   1.428       .  S
C1334      H1338   1.084       .  S
N1335      O1345   1.261       .  A
N1335      O1346   1.262       .  A
N1337      O1343   1.261       .  A
N1337      O1344   1.261       .  A
C1347      C1348   1.404   1_554  A
C1347      C1352   1.404       .  A
C1347      H1357   1.084       .  S
C1348      C1353   1.491       .  S
C1348      C1349   1.414       .  A
C1349      C1350   1.401       .  A
C1349      N1354   1.436       .  S
C1350      C1351   1.406   1_556  A
C1350      H1355   1.084       .  S
C1351      C1352   1.416       .  A
C1352      N1356   1.429       .  S
C1353      C1358   1.419       .  A
C1353      C1362   1.407       .  A
N1354      O1369   1.262       .  A
N1354      O1370   1.263       .  A
N1356      O1367   1.262       .  A
N1356      O1368   1.261       .  A
C1358      C1359   1.402       .  A
C1358      N1363   1.437       .  S
C1359      C1360   1.399       .  A
C1359      H1364   1.084       .  S
C1360      C1361   1.407       .  A
C1361      C1362   1.404       .  A
C1361      N1365   1.428       .  S
C1362      H1366   1.084   1_556  S
N1363      O1373   1.263       .  A
N1363      O1374   1.262       .  A
N1365      O1371   1.262   1_556  A
N1365      O1372   1.262       .  A
C1375      C1376   1.399       .  A
C1375      C1380   1.403       .  A
C1375      H1385   1.084       .  S
C1376      C1381   1.487       .  S
C1376      C1377   1.409       .  A
C1377      C1378   1.406       .  A
C1377      N1382   1.428       .  S
C1378      C1379   1.407       .  A
C1378      H1383   1.083       .  S
C1379      C1380   1.421       .  A
C1380      N1384   1.433       .  S
C1381      C1386   1.407       .  A
C1381      C1390   1.405       .  A
N1382      O1397   1.261       .  A
N1382      O1398   1.261       .  A
N1384      O1395   1.262       .  A
N1384      O1396   1.262       .  A
C1386      C1387   1.400       .  A
C1386      N1391   1.430       .  S
C1387      C1388   1.406       .  A
C1387      H1392   1.084       .  S
C1388      C1389   1.413       .  A
C1389      C1390   1.410       .  A
C1389      N1393   1.429   1_455  S
C1390      H1394   1.083   1_455  S
N1391      O1401   1.262       .  A
N1391      O1402   1.262       .  A
N1393      O1399   1.262       .  A
N1393      O1400   1.262       .  A
C1403      C1404   1.405       .  A
C1403      C1408   1.404       .  A
C1403      H1413   1.083       .  S
C1404      C1409   1.495       .  S
C1404      C1405   1.413       .  A
C1405      C1406   1.403       .  A
C1405      N1410   1.431       .  S
C1406      C1407   1.406       .  A
C1406      H1411   1.083       .  S
C1407      C1408   1.416       .  A
C1408      N1412   1.429       .  S
C1409      C1414   1.412   1_545  A
C1409      C1418   1.401       .  A
N1410      O1425   1.262       .  A
N1410      O1426   1.262       .  A
N1412      O1423   1.262       .  A
N1412      O1424   1.262       .  A
C1414      C1415   1.407       .  A
C1414      N1419   1.430       .  S
C1415      C1416   1.409       .  A
C1415      H1420   1.084       .  S
C1416      C1417   1.421   1_565  A
C1417      C1418   1.401       .  A
C1417      N1421   1.432       .  S
C1418      H1422   1.084       .  S
N1419      O1429   1.262       .  A
N1419      O1430   1.262       .  A
N1421      O1427   1.262       .  A
N1421      O1428   1.263       .  A
C1431      C1432   1.404       .  A
C1431      C1436   1.408       .  A
C1431      H1441   1.084       .  S
C1432      C1437   1.483       .  S
C1432      C1433   1.403       .  A
C1433      C1434   1.397       .  A
C1433      N1438   1.430       .  S
C1434      C1435   1.411       .  A
C1434      H1439   1.081       .  S
C1435      C1436   1.418       .  A
C1436      N1440   1.431       .  S
C1437      C1442   1.409       .  A
C1437      C1446   1.401       .  A
N1438      O1453   1.262       .  A
N1438      O1454   1.262       .  A
N1440      O1451   1.262       .  A
N1440      O1452   1.262       .  A
C1442      C1443   1.405       .  A
C1442      N1447   1.428   1_556  S
C1443      C1444   1.404       .  A
C1443      H1448   1.084   1_556  S
C1444      C1445   1.409       .  A
C1445      C1446   1.398       .  A
C1445      N1449   1.427       .  S
C1446      H1450   1.084       .  S
N1447      O1457   1.262       .  A
N1447      O1458   1.262       .  A
N1449      O1455   1.262       .  A
N1449      O1456   1.262       .  A
C1459      C1460   1.401       .  A
C1459      C1464   1.402       .  A
C1459      H1469   1.084       .  S
C1460      C1465   1.486       .  S
C1460      C1461   1.411       .  A
C1461      C1462   1.404       .  A
C1461      N1466   1.433       .  S
C1462      C1463   1.408       .  A
C1462      H1467   1.084       .  S
C1463      C1464   1.415       .  A
C1464      N1468   1.432       .  S
C1465      C1470   1.410       .  A
C1465      C1474   1.402       .  A
N1466      O1481   1.262       .  A
N1466      O1482   1.262       .  A
N1468      O1479   1.262       .  A
N1468      O1480   1.262       .  A
C1470      C1471   1.401       .  A
C1470      N1475   1.432       .  S
C1471      C1472   1.410       .  A
C1471      H1476   1.082       .  S
C1472      C1473   1.418       .  A
C1473      C1474   1.404       .  A
C1473      N1477   1.428       .  S
C1474      H1478   1.084       .  S
N1475      O1485   1.262       .  A
N1475      O1486   1.262       .  A
N1477      O1483   1.262       .  A
N1477      O1484   1.262       .  A
C1487      C1488   1.403       .  A
C1487      C1492   1.405       .  A
C1487      H1497   1.084       .  S
C1488      C1493   1.483       .  S
C1488      C1489   1.408       .  A
C1489      C1490   1.398       .  A
C1489      N1494   1.433       .  S
C1490      C1491   1.408       .  A
C1490      H1495   1.083       .  S
C1491      C1492   1.414       .  A
C1492      N1496   1.428       .  S
C1493      C1498   1.411       .  A
C1493      C1502   1.399       .  A
N1494      O1509   1.262       .  A
N1494      O1510   1.262       .  A
N1496      O1507   1.262       .  A
N1496      O1508   1.262       .  A
C1498      C1499   1.402       .  A
C1498      N1503   1.433       .  S
C1499      C1500   1.407       .  A
C1499      H1504   1.083       .  S
C1500      C1501   1.418       .  A
C1501      C1502   1.400       .  A
C1501      N1505   1.429       .  S
C1502      H1506   1.084       .  S
N1503      O1513   1.262       .  A
N1503      O1514   1.262       .  A
N1505      O1511   1.262       .  A
N1505      O1512   1.262       .  A
C1515      C1516   1.400       .  A
C1515      C1520   1.399       .  A
C1515      H1525   1.084       .  S
C1516      C1521   1.485       .  S
C1516      C1517   1.410       .  A
C1517      C1518   1.403       .  A
C1517      N1522   1.429       .  S
C1518      C1519   1.407       .  A
C1518      H1523   1.084       .  S
C1519      C1520   1.417       .  A
C1520      N1524   1.430       .  S
C1521      C1526   1.409       .  A
C1521      C1530   1.403       .  A
N1522      O1537   1.262       .  A
N1522      O1538   1.262       .  A
N1524      O1535   1.262       .  A
N1524      O1536   1.262       .  A
C1526      C1527   1.398       .  A
C1526      N1531   1.430       .  S
C1527      C1528   1.406       .  A
C1527      H1532   1.083       .  S
C1528      C1529   1.416       .  A
C1529      C1530   1.405       .  A
C1529      N1533   1.432       .  S
C1530      H1534   1.083       .  S
N1531      O1541   1.262       .  A
N1531      O1542   1.262       .  A
N1533      O1539   1.262       .  A
N1533      O1540   1.262       .  A
C1543      C1544   1.401       .  A
C1543      C1548   1.404       .  A
C1543      H1553   1.084       .  S
C1544      C1549   1.481       .  S
C1544      C1545   1.407       .  A
C1545      C1546   1.399       .  A
C1545      N1550   1.429       .  S
C1546      C1547   1.408       .  A
C1546      H1551   1.082       .  S
C1547      C1548   1.418       .  A
C1548      N1552   1.428       .  S
C1549      C1554   1.407   1_556  A
C1549      C1558   1.396       .  A
N1550      O1565   1.262       .  A
N1550      O1566   1.262       .  A
N1552      O1563   1.262       .  A
N1552      O1564   1.261       .  A
C1554      C1555   1.407       .  A
C1554      N1559   1.428       .  S
C1555      C1556   1.409       .  A
C1555      H1560   1.083       .  S
C1556      C1557   1.419   1_554  A
C1557      C1558   1.394       .  A
C1557      N1561   1.429       .  S
C1558      H1562   1.084       .  S
N1559      O1569   1.262       .  A
N1559      O1570   1.262       .  A
N1561      O1567   1.261       .  A
N1561      O1568   1.262       .  A
C1571      C1572   1.397       .  A
C1571      C1576   1.402       .  A
C1571      H1581   1.084       .  S
C1572      C1577   1.484       .  S
C1572      C1573   1.409       .  A
C1573      C1574   1.407       .  A
C1573      N1578   1.430       .  S
C1574      C1575   1.408       .  A
C1574      H1579   1.083       .  S
C1575      C1576   1.421       .  A
C1576      N1580   1.432       .  S
C1577      C1582   1.403       .  A
C1577      C1586   1.403   1_655  A
N1578      O1593   1.261       .  A
N1578      O1594   1.262       .  A
N1580      O1591   1.262       .  A
N1580      O1592   1.262       .  A
C1582      C1583   1.399       .  A
C1582      N1587   1.429       .  S
C1583      C1584   1.412       .  A
C1583      H1588   1.083       .  S
C1584      C1585   1.416   1_655  A
C1585      C1586   1.408       .  A
C1585      N1589   1.428       .  S
C1586      H1590   1.083       .  S
N1587      O1597   1.262       .  A
N1587      O1598   1.262       .  A
N1589      O1595   1.262       .  A
N1589      O1596   1.261       .  A
C1599      C1600   1.402       .  A
C1599      C1604   1.403       .  A
C1599      H1609   1.084       .  S
C1600      C1605   1.486       .  S
C1600      C1601   1.409       .  A
C1601      C1602   1.402       .  A
C1601      N1606   1.429       .  S
C1602      C1603   1.406       .  A
C1602      H1607   1.084       .  S
C1603      C1604   1.416       .  A
C1604      N1608   1.429       .  S
C1605      C1610   1.408       .  A
C1605      C1614   1.401       .  A
N1606      O1621   1.262       .  A
N1606      O1622   1.262       .  A
N1608      O1619   1.262       .  A
N1608      O1620   1.262       .  A
C1610      C1611   1.401       .  A
C1610      N1615   1.430       .  S
C1611      C1612   1.409       .  A
C1611      H1616   1.083       .  S
C1612      C1613   1.419       .  A
C1613      C1614   1.404       .  A
C1613      N1617   1.431       .  S
C1614      H1618   1.084       .  S
N1615      O1625   1.262       .  A
N1615      O1626   1.262       .  A
N1617      O1623   1.262       .  A
N1617      O1624   1.262       .  A
C1627      C1628   1.400       .  A
C1627      C1632   1.403       .  A
C1627      H1637   1.084       .  S
C1628      C1633   1.478       .  S
C1628      C1629   1.405       .  A
C1629      C1630   1.401       .  A
C1629      N1634   1.429       .  S
C1630      C1631   1.407       .  A
C1630      H1635   1.084       .  S
C1631      C1632   1.415       .  A
C1632      N1636   1.433       .  S
C1633      C1638   1.404       .  A
C1633      C1642   1.400       .  A
N1634      O1649   1.262       .  A
N1634      O1650   1.262       .  A
N1636      O1647   1.262       .  A
N1636      O1648   1.262       .  A
C1638      C1639   1.399       .  A
C1638      N1643   1.429       .  S
C1639      C1640   1.410       .  A
C1639      H1644   1.081       .  S
C1640      C1641   1.419       .  A
C1641      C1642   1.403       .  A
C1641      N1645   1.429       .  S
C1642      H1646   1.083       .  S
N1643      O1653   1.262       .  A
N1643      O1654   1.262       .  A
N1645      O1651   1.262       .  A
N1645      O1652   1.262       .  A
C1655      C1656   1.407       .  A
C1655      C1660   1.409       .  A
C1655      H1665   1.083       .  S
C1656      C1661   1.496       .  S
C1656      C1657   1.411       .  A
C1657      C1658   1.402       .  A
C1657      N1662   1.430       .  S
C1658      C1659   1.407       .  A
C1658      H1663   1.084       .  S
C1659      C1660   1.414       .  A
C1660      N1664   1.429       .  S
C1661      C1666   1.411   1_565  A
C1661      C1670   1.402       .  A
N1662      O1677   1.262       .  A
N1662      O1678   1.262       .  A
N1664      O1675   1.261       .  A
N1664      O1676   1.262       .  A
C1666      C1667   1.409       .  A
C1666      N1671   1.428       .  S
C1667      C1668   1.408       .  A
C1667      H1672   1.084       .  S
C1668      C1669   1.419   1_545  A
C1669      C1670   1.401       .  A
C1669      N1673   1.430       .  S
C1670      H1674   1.084       .  S
N1671      O1681   1.262       .  A
N1671      O1682   1.262       .  A
N1673      O1679   1.262       .  A
N1673      O1680   1.262       .  A
C1683      C1684   1.406       .  A
C1683      C1688   1.402       .  A
C1683      H1693   1.083       .  S
C1684      C1689   1.488       .  S
C1684      C1685   1.412       .  A
C1685      C1686   1.402       .  A
C1685      N1690   1.429       .  S
C1686      C1687   1.401       .  A
C1686      H1691   1.084       .  S
C1687      C1688   1.406       .  A
C1688      N1692   1.428       .  S
C1689      C1694   1.410       .  A
C1689      C1698   1.403       .  A
N1690      O1705   1.262       .  A
N1690      O1706   1.262       .  A
N1692      O1703   1.262       .  A
N1692      O1704   1.262       .  A
C1694      C1695   1.402       .  A
C1694      N1699   1.429       .  S
C1695      C1696   1.406       .  A
C1695      H1700   1.084       .  S
C1696      C1697   1.414       .  A
C1697      C1698   1.401       .  A
C1697      N1701   1.430       .  S
C1698      H1702   1.084       .  S
N1699      O1709   1.262       .  A
N1699      O1710   1.262       .  A
N1701      O1707   1.262       .  A
N1701      O1708   1.262       .  A
C1711      C1712   1.403       .  A
C1711      C1716   1.405       .  A
C1711      H1721   1.084       .  S
C1712      C1717   1.486       .  S
C1712      C1713   1.407       .  A
C1713      C1714   1.405       .  A
C1713      N1718   1.429       .  S
C1714      C1715   1.408       .  A
C1714      H1719   1.084       .  S
C1715      C1716   1.414       .  A
C1716      N1720   1.429       .  S
C1717      C1722   1.410       .  A
C1717      C1726   1.399       .  A
N1718      O1733   1.262       .  A
N1718      O1734   1.262       .  A
N1720      O1731   1.262       .  A
N1720      O1732   1.262       .  A
C1722      C1723   1.410       .  A
C1722      N1727   1.428       .  S
C1723      C1724   1.408       .  A
C1723      H1728   1.084       .  S
C1724      C1725   1.409       .  A
C1725      C1726   1.399       .  A
C1725      N1729   1.424       .  S
C1726      H1730   1.084       .  S
N1727      O1737   1.262       .  A
N1727      O1738   1.262       .  A
N1729      O1735   1.261       .  A
N1729      O1736   1.262       .  A
C1739      C1740   1.396       .  A
C1739      C1744   1.397       .  A
C1739      H1749   1.084       .  S
C1740      C1745   1.478       .  S
C1740      C1741   1.409       .  A
C1741      C1742   1.403       .  A
C1741      N1746   1.428       .  S
C1742      C1743   1.403       .  A
C1742      H1747   1.084       .  S
C1743      C1744   1.413       .  A
C1744      N1748   1.427       .  S
C1745      C1750   1.412       .  A
C1745      C1754   1.397       .  A
N1746      O1761   1.262       .  A
N1746      O1762   1.262       .  A
N1748      O1759   1.261       .  A
N1748      O1760   1.260       .  A
C1750      C1751   1.402       .  A
C1750      N1755   1.430       .  S
C1751      C1752   1.403       .  A
C1751      H1756   1.084       .  S
C1752      C1753   1.416       .  A
C1753      C1754   1.398       .  A
C1753      N1757   1.430       .  S
C1754      H1758   1.084       .  S
N1755      O1765   1.262       .  A
N1755      O1766   1.262       .  A
N1757      O1763   1.262       .  A
N1757      O1764   1.262       .  A
C1767      C1768   1.404       .  A
C1767      C1772   1.399       .  A
C1767      H1777   1.083       .  S
C1768      C1773   1.505       .  S
C1768      C1769   1.418       .  A
C1769      C1770   1.412       .  A
C1769      N1774   1.431       .  S
C1770      C1771   1.405       .  A
C1770      H1775   1.084       .  S
C1771      C1772   1.417       .  A
C1772      N1776   1.430       .  S
C1773      C1778   1.417       .  A
C1773      C1782   1.407       .  A
N1774      O1789   1.262       .  A
N1774      O1790   1.262       .  A
N1776      O1787   1.262       .  A
N1776      O1788   1.262       .  A
C1778      C1779   1.405       .  A
C1778      N1783   1.432       .  S
C1779      C1780   1.406       .  A
C1779      H1784   1.083       .  S
C1780      C1781   1.414       .  A
C1781      C1782   1.406       .  A
C1781      N1785   1.428       .  S
C1782      H1786   1.082       .  S
N1783      O1793   1.263       .  A
N1783      O1794   1.262       .  A
N1785      O1791   1.262       .  A
N1785      O1792   1.261       .  A
C1795      C1796   1.404       .  A
C1795      C1800   1.402       .  A
C1795      H1805   1.083       .  S
C1796      C1801   1.498       .  S
C1796      C1797   1.415       .  A
C1797      C1798   1.405       .  A
C1797      N1802   1.432       .  S
C1798      C1799   1.405       .  A
C1798      H1803   1.083       .  S
C1799      C1800   1.420       .  A
C1800      N1804   1.430       .  S
C1801      C1806   1.416       .  A
C1801      C1810   1.406       .  A
N1802      O1817   1.262       .  A
N1802      O1818   1.262       .  A
N1804      O1815   1.262       .  A
N1804      O1816   1.262       .  A
C1806      C1807   1.406       .  A
C1806      N1811   1.431       .  S
C1807      C1808   1.405       .  A
C1807      H1812   1.084       .  S
C1808      C1809   1.412       .  A
C1809      C1810   1.402       .  A
C1809      N1813   1.434       .  S
C1810      H1814   1.083       .  S
N1811      O1821   1.262       .  A
N1811      O1822   1.262       .  A
N1813      O1819   1.262       .  A
N1813      O1820   1.263       .  A
C1823      C1824   1.404       .  A
C1823      C1828   1.408       .  A
C1823      H1833   1.084       .  S
C1824      C1829   1.487       .  S
C1824      C1825   1.408       .  A
C1825      C1826   1.402       .  A
C1825      N1830   1.430       .  S
C1826      C1827   1.406       .  A
C1826      H1831   1.084       .  S
C1827      C1828   1.410       .  A
C1828      N1832   1.427       .  S
C1829      C1834   1.410       .  A
C1829      C1838   1.401       .  A
N1830      O1845   1.262       .  A
N1830      O1846   1.262       .  A
N1832      O1843   1.262       .  A
N1832      O1844   1.261       .  A
C1834      C1835   1.405       .  A
C1834      N1839   1.429       .  S
C1835      C1836   1.406       .  A
C1835      H1840   1.084       .  S
C1836      C1837   1.417       .  A
C1837      C1838   1.405       .  A
C1837      N1841   1.430       .  S
C1838      H1842   1.084       .  S
N1839      O1849   1.262       .  A
N1839      O1850   1.262       .  A
N1841      O1847   1.262       .  A
N1841      O1848   1.262       .  A
C1851      C1852   1.403       .  A
C1851      C1856   1.406       .  A
C1851      H1861   1.084       .  S
C1852      C1857   1.484       .  S
C1852      C1853   1.406       .  A
C1853      C1854   1.402       .  A
C1853      N1858   1.429       .  S
C1854      C1855   1.409       .  A
C1854      H1859   1.083       .  S
C1855      C1856   1.415       .  A
C1856      N1860   1.429       .  S
C1857      C1862   1.409       .  A
C1857      C1866   1.400       .  A
N1858      O1873   1.262       .  A
N1858      O1874   1.262       .  A
N1860      O1871   1.262       .  A
N1860      O1872   1.262       .  A
C1862      C1863   1.408       .  A
C1862      N1867   1.428       .  S
C1863      C1864   1.406       .  A
C1863      H1868   1.084       .  S
C1864      C1865   1.408       .  A
C1865      C1866   1.400       .  A
C1865      N1869   1.426       .  S
C1866      H1870   1.084       .  S
N1867      O1877   1.261       .  A
N1867      O1878   1.262       .  A
N1869      O1875   1.261       .  A
N1869      O1876   1.262       .  A
C1879      C1880   1.398       .  A
C1879      C1884   1.400       .  A
C1879      H1889   1.084       .  S
C1880      C1885   1.476       .  S
C1880      C1881   1.412       .  A
C1881      C1882   1.400       .  A
C1881      N1886   1.430       .  S
C1882      C1883   1.400       .  A
C1882      H1887   1.084       .  S
C1883      C1884   1.412       .  A
C1884      N1888   1.431       .  S
C1885      C1890   1.404       .  A
C1885      C1894   1.396       .  A
N1886      O1901   1.262   1_554  A
N1886      O1902   1.262       .  A
N1888      O1899   1.262       .  A
N1888      O1900   1.262       .  A
C1890      C1891   1.399       .  A
C1890      N1895   1.428       .  S
C1891      C1892   1.406       .  A
C1891      H1896   1.081       .  S
C1892      C1893   1.420       .  A
C1893      C1894   1.401       .  A
C1893      N1897   1.426       .  S
C1894      H1898   1.084       .  S
N1895      O1905   1.262       .  A
N1895      O1906   1.262       .  A
N1897      O1903   1.262       .  A
N1897      O1904   1.257   1_554  A
C1907      C1908   1.398       .  A
C1907      C1912   1.400       .  A
C1907      H1917   1.085       .  S
C1908      C1913   1.489       .  S
C1908      C1909   1.408       .  A
C1909      C1910   1.408       .  A
C1909      N1914   1.429       .  S
C1910      C1911   1.408       .  A
C1910      H1915   1.082       .  S
C1911      C1912   1.418       .  A
C1912      N1916   1.430       .  S
C1913      C1918   1.407       .  A
C1913      C1922   1.405       .  A
N1914      O1929   1.262       .  A
N1914      O1930   1.261       .  A
N1916      O1927   1.262       .  A
N1916      O1928   1.262       .  A
C1918      C1919   1.401       .  A
C1918      N1923   1.429       .  S
C1919      C1920   1.408       .  A
C1919      H1924   1.084       .  S
C1920      C1921   1.418       .  A
C1921      C1922   1.408       .  A
C1921      N1925   1.433       .  S
C1922      H1926   1.084       .  S
N1923      O1933   1.262       .  A
N1923      O1934   1.262       .  A
N1925      O1931   1.262       .  A
N1925      O1932   1.262       .  A
C1935      C1936   1.410       .  A
C1935      C1940   1.414       .  A
C1935      H1945   1.081       .  S
C1936      C1941   1.505       .  S
C1936      C1937   1.414       .  A
C1937      C1938   1.401       .  A
C1937      N1942   1.432       .  S
C1938      C1939   1.407       .  A
C1938      H1943   1.084       .  S
C1939      C1940   1.414       .  A
C1940      N1944   1.428       .  S
C1941      C1946   1.416       .  A
C1941      C1950   1.404       .  A
N1942      O1957   1.262       .  A
N1942      O1958   1.262       .  A
N1944      O1955   1.262       .  A
N1944      O1956   1.262       .  A
C1946      C1947   1.409       .  A
C1946      N1951   1.428       .  S
C1947      C1948   1.405       .  A
C1947      H1952   1.083       .  S
C1948      C1949   1.421       .  A
C1949      C1950   1.404       .  A
C1949      N1953   1.429       .  S
C1950      H1954   1.084       .  S
N1951      O1961   1.262       .  A
N1951      O1962   1.262       .  A
N1953      O1959   1.262       .  A
N1953      O1960   1.262       .  A
C1963      C1964   1.403       .  A
C1963      C1968   1.406       .  A
C1963      H1973   1.078       .  S
C1964      C1969   1.488       .  S
C1964      C1965   1.408       .  A
C1965      C1966   1.401       .  A
C1965      N1970   1.429       .  S
C1966      C1967   1.408       .  A
C1966      H1971   1.083       .  S
C1967      C1968   1.411       .  A
C1968      N1972   1.429       .  S
C1969      C1974   1.413       .  A
C1969      C1978   1.397       .  A
N1970      O1985   1.262       .  A
N1970      O1986   1.262       .  A
N1972      O1983   1.261       .  A
N1972      O1984   1.262       .  A
C1974      C1975   1.410       .  A
C1974      N1979   1.434       .  S
C1975      C1976   1.408       .  A
C1975      H1980   1.083       .  S
C1976      C1977   1.419       .  A
C1977      C1978   1.397       .  A
C1977      N1981   1.427       .  S
C1978      H1982   1.084       .  S
N1979      O1989   1.262       .  A
N1979      O1990   1.262       .  A
N1981      O1987   1.262       .  A
N1981      O1988   1.262       .  A
C1991      C1992   1.397       .  A
C1991      C1996   1.404       .  A
C1991      H2001   1.084       .  S
C1992      C1997   1.486       .  S
C1992      C1993   1.409       .  A
C1993      C1994   1.406       .  A
C1993      N1998   1.428       .  S
C1994      C1995   1.408       .  A
C1994      H1999   1.083       .  S
C1995      C1996   1.423       .  A
C1996      N2000   1.432       .  S
C1997      C2002   1.406       .  A
C1997      C2006   1.404       .  A
N1998      O2013   1.262       .  A
N1998      O2014   1.261   1_455  A
N2000      O2011   1.262       .  A
N2000      O2012   1.262       .  A
C2002      C2003   1.399       .  A
C2002      N2007   1.429       .  S
C2003      C2004   1.404       .  A
C2003      H2008   1.081       .  S
C2004      C2005   1.412       .  A
C2005      C2006   1.409       .  A
C2005      N2009   1.427       .  S
C2006      H2010   1.083       .  S
N2007      O2017   1.262       .  A
N2007      O2018   1.262       .  A
N2009      O2015   1.262       .  A
N2009      O2016   1.262       .  A
C2019      C2020   1.405       .  A
C2019      C2024   1.403       .  A
C2019      H2029   1.083       .  S
C2020      C2025   1.495       .  S
C2020      C2021   1.412       .  A
C2021      C2022   1.407       .  A
C2021      N2026   1.428       .  S
C2022      C2023   1.404       .  A
C2022      H2027   1.084       .  S
C2023      C2024   1.409       .  A
C2024      N2028   1.431       .  S
C2025      C2030   1.408       .  A
C2025      C2034   1.408       .  A
N2026      O2041   1.261       .  A
N2026      O2042   1.261       .  A
N2028      O2039   1.262       .  A
N2028      O2040   1.262       .  A
C2030      C2031   1.399       .  A
C2030      N2035   1.431       .  S
C2031      C2032   1.412       .  A
C2031      H2036   1.083       .  S
C2032      C2033   1.416       .  A
C2033      C2034   1.410       .  A
C2033      N2037   1.428       .  S
C2034      H2038   1.083       .  S
N2035      O2045   1.262       .  A
N2035      O2046   1.262       .  A
N2037      O2043   1.262       .  A
N2037      O2044   1.262       .  A
C2047      C2048   1.406       .  A
C2047      C2052   1.409       .  A
C2047      H2057   1.083       .  S
C2048      C2053   1.493       .  S
C2048      C2049   1.407       .  A
C2049      C2050   1.403       .  A
C2049      N2054   1.429       .  S
C2050      C2051   1.408       .  A
C2050      H2055   1.083       .  S
C2051      C2052   1.416       .  A
C2052      N2056   1.429       .  S
C2053      C2058   1.409       .  A
C2053      C2062   1.400       .  A
N2054      O2069   1.262       .  A
N2054      O2070   1.262       .  A
N2056      O2067   1.262       .  A
N2056      O2068   1.262       .  A
C2058      C2059   1.412       .  A
C2058      N2063   1.430       .  S
C2059      C2060   1.411       .  A
C2059      H2064   1.083       .  S
C2060      C2061   1.419       .  A
C2061      C2062   1.402       .  A
C2061      N2065   1.428       .  S
C2062      H2066   1.084       .  S
N2063      O2073   1.262       .  A
N2063      O2074   1.262       .  A
N2065      O2071   1.262       .  A
N2065      O2072   1.262       .  A
C2075      C2076   1.404       .  A
C2075      C2080   1.404       .  A
C2075      H2085   1.083       .  S
C2076      C2081   1.498       .  S
C2076      C2077   1.411       .  A
C2077      C2078   1.405       .  A
C2077      N2082   1.430       .  S
C2078      C2079   1.409       .  A
C2078      H2083   1.081       .  S
C2079      C2080   1.421       .  A
C2080      N2084   1.433       .  S
C2081      C2086   1.411       .  A
C2081      C2090   1.407       .  A
N2082      O2097   1.262       .  A
N2082      O2098   1.262       .  A
N2084      O2095   1.262       .  A
N2084      O2096   1.263       .  A
C2086      C2087   1.401       .  A
C2086      N2091   1.432       .  S
C2087      C2088   1.409       .  A
C2087      H2092   1.083       .  S
C2088      C2089   1.416       .  A
C2089      C2090   1.409       .  A
C2089      N2093   1.431       .  S
C2090      H2094   1.082       .  S
N2091      O2101   1.262       .  A
N2091      O2102   1.262       .  A
N2093      O2099   1.262       .  A
N2093      O2100   1.262       .  A
C2103      C2104   1.404       .  A
C2103      C2108   1.405       .  A
C2103      H2113   1.083       .  S
C2104      C2109   1.489       .  S
C2104      C2105   1.408       .  A
C2105      C2106   1.404       .  A
C2105      N2110   1.429       .  S
C2106      C2107   1.408       .  A
C2106      H2111   1.083       .  S
C2107      C2108   1.413       .  A
C2108      N2112   1.429       .  S
C2109      C2114   1.409       .  A
C2109      C2118   1.398       .  A
N2110      O2125   1.262       .  A
N2110      O2126   1.262       .  A
N2112      O2123   1.262       .  A
N2112      O2124   1.262       .  A
C2114      C2115   1.410       .  A
C2114      N2119   1.429       .  S
C2115      C2116   1.408       .  A
C2115      H2120   1.082       .  S
C2116      C2117   1.421       .  A
C2117      C2118   1.401       .  A
C2117      N2121   1.430       .  S
C2118      H2122   1.084       .  S
N2119      O2129   1.260       .  A
N2119      O2130   1.262       .  A
N2121      O2127   1.262       .  A
N2121      O2128   1.262       .  A
C2131      C2132   1.404       .  A
C2131      C2136   1.405       .  A
C2131      H2141   1.084       .  S
C2132      C2137   1.496       .  S
C2132      C2133   1.411       .  A
C2133      C2134   1.404       .  A
C2133      N2138   1.431       .  S
C2134      C2135   1.411       .  A
C2134      H2139   1.083       .  S
C2135      C2136   1.418       .  A
C2136      N2140   1.428       .  S
C2137      C2142   1.414       .  A
C2137      C2146   1.404       .  A
N2138      O2153   1.262       .  A
N2138      O2154   1.262       .  A
N2140      O2151   1.261   1_455  A
N2140      O2152   1.261       .  A
C2142      C2143   1.403       .  A
C2142      N2147   1.429       .  S
C2143      C2144   1.402       .  A
C2143      H2148   1.084       .  S
C2144      C2145   1.414       .  A
C2145      C2146   1.405       .  A
C2145      N2149   1.430       .  S
C2146      H2150   1.083       .  S
N2147      O2157   1.262       .  A
N2147      O2158   1.262       .  A
N2149      O2155   1.262       .  A
N2149      O2156   1.262       .  A
C2159      C2160   1.397       .  A
C2159      C2164   1.399       .  A
C2159      H2169   1.084       .  S
C2160      C2165   1.475       .  S
C2160      C2161   1.411       .  A
C2161      C2162   1.403       .  A
C2161      N2166   1.430       .  S
C2162      C2163   1.403       .  A
C2162      H2167   1.084       .  S
C2163      C2164   1.414       .  A
C2164      N2168   1.432       .  S
C2165      C2170   1.406       .  A
C2165      C2174   1.399       .  A
N2166      O2181   1.261   1_545  A
N2166      O2182   1.261   1_545  A
N2168      O2179   1.262       .  A
N2168      O2180   1.262       .  A
C2170      C2171   1.398       .  A
C2170      N2175   1.429       .  S
C2171      C2172   1.402       .  A
C2171      H2176   1.086       .  S
C2172      C2173   1.414       .  A
C2173      C2174   1.402       .  A
C2173      N2177   1.428       .  S
C2174      H2178   1.086       .  S
N2175      O2185   1.262       .  A
N2175      O2186   1.262       .  A
N2177      O2183   1.262       .  A
N2177      O2184   1.261       .  A
C2187      C2188   1.402       .  A
C2187      C2192   1.407       .  A
C2187      H2197   1.084       .  S
C2188      C2193   1.489       .  S
C2188      C2189   1.409       .  A
C2189      C2190   1.406       .  A
C2189      N2194   1.429       .  S
C2190      C2191   1.407       .  A
C2190      H2195   1.084       .  S
C2191      C2192   1.415       .  A
C2192      N2196   1.430       .  S
C2193      C2198   1.412       .  A
C2193      C2202   1.400       .  A
N2194      O2209   1.261       .  A
N2194      O2210   1.262       .  A
N2196      O2207   1.262       .  A
N2196      O2208   1.262       .  A
C2198      C2199   1.408       .  A
C2198      N2203   1.429       .  S
C2199      C2200   1.406       .  A
C2199      H2204   1.084       .  S
C2200      C2201   1.416       .  A
C2201      C2202   1.403       .  A
C2201      N2205   1.430       .  S
C2202      H2206   1.084       .  S
N2203      O2213   1.261       .  A
N2203      O2214   1.262       .  A
N2205      O2211   1.262       .  A
N2205      O2212   1.262       .  A
C2215      C2216   1.402       .  A
C2215      C2220   1.411       .  A
C2215      H2225   1.081       .  S
C2216      C2221   1.498       .  S
C2216      C2217   1.410       .  A
C2217      C2218   1.411       .  A
C2217      N2222   1.431       .  S
C2218      C2219   1.411       .  A
C2218      H2223   1.083       .  S
C2219      C2220   1.417       .  A
C2220      N2224   1.428       .  S
C2221      C2226   1.413       .  A
C2221      C2230   1.402       .  A
N2222      O2237   1.262       .  A
N2222      O2238   1.262       .  A
N2224      O2235   1.261       .  A
N2224      O2236   1.261       .  A
C2226      C2227   1.407       .  A
C2226      N2231   1.424   1_545  S
C2227      C2228   1.402       .  A
C2227      H2232   1.084       .  S
C2228      C2229   1.416       .  A
C2229      C2230   1.407       .  A
C2229      N2233   1.431       .  S
C2230      H2234   1.084       .  S
N2231      O2241   1.262       .  A
N2231      O2242   1.262       .  A
N2233      O2239   1.262       .  A
N2233      O2240   1.262       .  A
C2243      C2244   1.403       .  A
C2243      C2248   1.405       .  A
C2243      H2253   1.077       .  S
C2244      C2249   1.492       .  S
C2244      C2245   1.411       .  A
C2245      C2246   1.405       .  A
C2245      N2250   1.435       .  S
C2246      C2247   1.410       .  A
C2246      H2251   1.082       .  S
C2247      C2248   1.413       .  A
C2248      N2252   1.431       .  S
C2249      C2254   1.416       .  A
C2249      C2258   1.403       .  A
N2250      O2265   1.262       .  A
N2250      O2266   1.262       .  A
N2252      O2263   1.262       .  A
N2252      O2264   1.262       .  A
C2254      C2255   1.404       .  A
C2254      N2259   1.428       .  S
C2255      C2256   1.399       .  A
C2255      H2260   1.084       .  S
C2256      C2257   1.408       .  A
C2257      C2258   1.403       .  A
C2257      N2261   1.427       .  S
C2258      H2262   1.084       .  S
N2259      O2269   1.261   1_565  A
N2259      O2270   1.262       .  A
N2261      O2267   1.262       .  A
N2261      O2268   1.262       .  A
C2271      C2272   1.404       .  A
C2271      C2276   1.405       .  A
C2271      H2281   1.084       .  S
C2272      C2277   1.488       .  S
C2272      C2273   1.410       .  A
C2273      C2274   1.401       .  A
C2273      N2278   1.431       .  S
C2274      C2275   1.406       .  A
C2274      H2279   1.084       .  S
C2275      C2276   1.416       .  A
C2276      N2280   1.431       .  S
C2277      C2282   1.411       .  A
C2277      C2286   1.398       .  A
N2278      O2293   1.262       .  A
N2278      O2294   1.262       .  A
N2280      O2291   1.262       .  A
N2280      O2292   1.262       .  A
C2282      C2283   1.407       .  A
C2282      N2287   1.429       .  S
C2283      C2284   1.407       .  A
C2283      H2288   1.083       .  S
C2284      C2285   1.421       .  A
C2285      C2286   1.395       .  A
C2285      N2289   1.430       .  S
C2286      H2290   1.084       .  S
N2287      O2297   1.262       .  A
N2287      O2298   1.262       .  A
N2289      O2295   1.262       .  A
N2289      O2296   1.262       .  A
C2299      C2300   1.406       .  A
C2299      C2304   1.401       .  A
C2299      H2309   1.083       .  S
C2300      C2305   1.491       .  S
C2300      C2301   1.410       .  A
C2301      C2302   1.405       .  A
C2301      N2306   1.432       .  S
C2302      C2303   1.411       .  A
C2302      H2307   1.083       .  S
C2303      C2304   1.409       .  A
C2304      N2308   1.426       .  S
C2305      C2310   1.409       .  A
C2305      C2314   1.407       .  A
N2306      O2321   1.262       .  A
N2306      O2322   1.262       .  A
N2308      O2319   1.260       .  A
N2308      O2320   1.262       .  A
C2310      C2311   1.399       .  A
C2310      N2315   1.431       .  S
C2311      C2312   1.407       .  A
C2311      H2316   1.084       .  S
C2312      C2313   1.414       .  A
C2313      C2314   1.406       .  A
C2313      N2317   1.429       .  S
C2314      H2318   1.083       .  S
N2315      O2325   1.262       .  A
N2315      O2326   1.262       .  A
N2317      O2323   1.262       .  A
N2317      O2324   1.261       .  A
C2327      C2328   1.404       .  A
C2327      C2332   1.402       .  A
C2327      H2337   1.084       .  S
C2328      C2333   1.484       .  S
C2328      C2329   1.407       .  A
C2329      C2330   1.403       .  A
C2329      N2334   1.432       .  S
C2330      C2331   1.411       .  A
C2330      H2335   1.083       .  S
C2331      C2332   1.412       .  A
C2332      N2336   1.427       .  S
C2333      C2338   1.405       .  A
C2333      C2342   1.406       .  A
N2334      O2349   1.262       .  A
N2334      O2350   1.262       .  A
N2336      O2347   1.262       .  A
N2336      O2348   1.262       .  A
C2338      C2339   1.399       .  A
C2338      N2343   1.429       .  S
C2339      C2340   1.407       .  A
C2339      H2344   1.083       .  S
C2340      C2341   1.414       .  A
C2341      C2342   1.408       .  A
C2341      N2345   1.430       .  S
C2342      H2346   1.083       .  S
N2343      O2353   1.262       .  A
N2343      O2354   1.262       .  A
N2345      O2351   1.262       .  A
N2345      O2352   1.261   1_545  A
C2355      C2356   1.406       .  A
C2355      C2360   1.408       .  A
C2355      H2365   1.084       .  S
C2356      C2361   1.485       .  S
C2356      C2357   1.407       .  A
C2357      C2358   1.396       .  A
C2357      N2362   1.430       .  S
C2358      C2359   1.407       .  A
C2358      H2363   1.083       .  S
C2359      C2360   1.415       .  A
C2360      N2364   1.429       .  S
C2361      C2366   1.410       .  A
C2361      C2370   1.398       .  A
N2362      O2377   1.262       .  A
N2362      O2378   1.262       .  A
N2364      O2375   1.261       .  A
N2364      O2376   1.262       .  A
C2366      C2367   1.407       .  A
C2366      N2371   1.431       .  S
C2367      C2368   1.409       .  A
C2367      H2372   1.084       .  S
C2368      C2369   1.420       .  A
C2369      C2370   1.395       .  A
C2369      N2373   1.431       .  S
C2370      H2374   1.084       .  S
N2371      O2381   1.262       .  A
N2371      O2382   1.262       .  A
N2373      O2379   1.262       .  A
N2373      O2380   1.262       .  A
