geometry optimzed in LAMMPS
_audit_creation_date              2020-11-30 
_audit_creation_method            'lammps2cif' 
_symmetry_space_group_name_H-M    'P1' 
_symmetry_Int_Tables_number       1 
_symmetry_cell_setting            triclinic 
loop_ 
_symmetry_equiv_pos_as_xyz 
  x,y,z 
_cell_length_a                    32.01868027528368 
_cell_length_b                    32.44512304137596 
_cell_length_c                    32.151359367839234 
_cell_angle_alpha                 92.21696353650181 
_cell_angle_beta                  92.39506128200885 
_cell_angle_gamma                 92.51386473947302 
loop_ 
_atom_site_label 
_atom_site_type_symbol 
_atom_site_fract_x 
_atom_site_fract_y 
_atom_site_fract_z 
_atom_site_charge 
C1          C  0.61238491  0.66747009  0.93566687     0.02980
C2          C  0.62026661  0.67577622  0.89475925    -0.13170
C3          C  0.65196074  0.65607207  0.87473076     0.00480
C4          C  0.67248186  0.62344640  0.89186886    -0.11700
C5          C  0.66539345  0.61272419  0.93226289     0.02970
C6          C  0.63390921  0.63416480  0.95416043    -0.11120
H7          H  0.60679445  0.70230503  0.88067995     0.08560
H8          H  0.69831994  0.61049195  0.87576921     0.06090
H9          H  0.62863250  0.62719563  0.98614378     0.05940
C10         C  0.90241352  0.65702759  0.62102005     0.02980
C11         C  0.92114454  0.67715957  0.58868669    -0.13170
C12         C  0.96142732  0.66846149  0.57830724     0.00480
C13         C  0.98122794  0.63585912  0.59964739    -0.11700
C14         C  0.96110516  0.61460238  0.63240774     0.02970
C15         C  0.92096118  0.62497105  0.64132914    -0.11120
H16         H  0.90632955  0.70348478  0.57560591     0.08560
H17         H  0.01297465  0.62917862  0.59298280     0.06090
H18         H  0.90607441  0.61191989  0.66786027     0.05940
C19         C  0.60976117  0.96648496  0.63437682     0.02980
C20         C  0.61723511  0.92555538  0.64145739    -0.13170
C21         C  0.64757713  0.90537919  0.61970567     0.00480
C22         C  0.66826345  0.92367160  0.58734711    -0.11700
C23         C  0.66181604  0.96440485  0.57829825     0.02970
C24         C  0.63087736  0.98559495  0.60101640    -0.11120
H25         H  0.60396897  0.91108782  0.66810009     0.08560
H26         H  0.69364034  0.90787202  0.57324389     0.06090
H27         H  0.62576645  0.01754458  0.59503122     0.05940
C28         C  0.72841991  0.78316351  0.75135315     0.02130
C29         C  0.74832983  0.75108997  0.76929601     0.02130
C30         C  0.78502432  0.73774486  0.75412224     0.02130
C31         C  0.79906231  0.75307753  0.71770312     0.02130
C32         C  0.77882348  0.78456336  0.69886766     0.02130
C33         C  0.74299800  0.79917332  0.71538597     0.02130
C34         C  0.41765888  0.36783903  0.97948351     0.02980
C35         C  0.40607840  0.41013104  0.97527501    -0.13170
C36         C  0.36221860  0.41951642  0.97640589     0.00480
C37         C  0.33297211  0.38570149  0.97720017    -0.11700
C38         C  0.34670825  0.34627192  0.96933778     0.02970
C39         C  0.38535372  0.33897745  0.98725455    -0.11120
H40         H  0.42945353  0.43398578  0.96921108     0.08560
H41         H  0.29978703  0.39000855  0.97244583     0.06090
H42         H  0.39225283  0.30701918  0.99180676     0.05940
C43         C  0.89712455  0.41042077  0.37455281     0.02980
C44         C  0.91833873  0.43700021  0.34773666    -0.13170
C45         C  0.96180097  0.43673994  0.34431981     0.00480
C46         C  0.98458098  0.40880148  0.36861442    -0.11700
C47         C  0.96424027  0.38396970  0.39786543     0.02970
C48         C  0.92160965  0.38763957  0.40221423    -0.11120
H49         H  0.90131512  0.45711512  0.32793406     0.08560
H50         H  0.01721605  0.40581245  0.36404915     0.06090
H51         H  0.90734489  0.36925737  0.42556666     0.05940
C52         C  0.43080240  0.92453872  0.39402447     0.02980
C53         C  0.44779746  0.94298833  0.35927113    -0.13170
C54         C  0.43182429  0.97866700  0.34276698     0.00480
C55         C  0.39677181  0.99648039  0.36197691    -0.11700
C56         C  0.37903192  0.97791080  0.39735029     0.02970
C57         C  0.39815744  0.94403792  0.41364311    -0.11120
H58         H  0.47422789  0.92971349  0.34466981     0.08560
H59         H  0.38499221  0.02503691  0.35099696     0.06090
H60         H  0.38614734  0.93197378  0.44196913     0.05940
C61         C  0.84113567  0.84937807  0.46002087     0.02980
C62         C  0.88173318  0.83626697  0.45894261    -0.13170
C63         C  0.91592732  0.86480155  0.45771092     0.00480
C64         C  0.90638129  0.90826926  0.45761256    -0.11700
C65         C  0.86360679  0.92034006  0.46287412     0.02970
C66         C  0.83442358  0.88941534  0.47259480    -0.11120
H67         H  0.88549089  0.80368272  0.45219880     0.08560
H68         H  0.93063840  0.93130697  0.45173096     0.06090
H69         H  0.80221897  0.89685951  0.47742488     0.05940
C70         C  0.94190528  0.89164050  0.56374093     0.02980
C71         C  0.91872359  0.87079189  0.59250618    -0.13170
C72         C  0.88269371  0.88652911  0.60695198     0.00480
C73         C  0.86871244  0.92388420  0.59519079    -0.11700
C74         C  0.88934582  0.94642036  0.56589281     0.02970
C75         C  0.92786083  0.93108584  0.55072657    -0.11120
H76         H  0.92765323  0.84086248  0.60296546     0.08560
H77         H  0.83972202  0.93411709  0.60763591     0.06090
H78         H  0.94467598  0.94780042  0.52773671     0.05940
C79         C  0.92209333  0.40538834  0.88413619     0.02980
C80         C  0.94541775  0.42480129  0.85408605    -0.13170
C81         C  0.94333831  0.46721262  0.84952514     0.00480
C82         C  0.91724776  0.48935084  0.87700152    -0.11700
C83         C  0.89884952  0.46947448  0.91151035     0.02970
C84         C  0.90720816  0.42841149  0.91728357    -0.11120
H85         H  0.95973046  0.40620715  0.83029339     0.08560
H86         H  0.90871511  0.51979327  0.86941263     0.06090
H87         H  0.89100036  0.41218076  0.94122752     0.05940
C88         C  0.95004725  0.60270045  0.85935514     0.02980
C89         C  0.92946382  0.63422413  0.84045401    -0.13170
C90         C  0.89301174  0.64848940  0.85582326     0.00480
C91         C  0.87649653  0.63387399  0.89167196    -0.11700
C92         C  0.89503280  0.60239803  0.91277794     0.02970
C93         C  0.93424440  0.58808461  0.89794848    -0.11120
H94         H  0.93989536  0.64589463  0.81123386     0.08560
H95         H  0.84684891  0.64530462  0.90117452     0.06090
H96         H  0.94973819  0.56375008  0.91370190     0.05940
C97         C  0.10331340  0.88210353  0.41687850     0.02980
C98         C  0.12341897  0.86900916  0.38119965    -0.13170
C99         C  0.15829673  0.89212175  0.36828215     0.00480
C100        C  0.16618801  0.93253816  0.38343600    -0.11700
C101        C  0.15440132  0.94339237  0.42315247     0.02970
C102        C  0.12076914  0.91895285  0.43936758    -0.11120
H103        H  0.11680437  0.83800493  0.36809212     0.08560
H104        H  0.19120614  0.95077169  0.37031103     0.06090
H105        H  0.10994793  0.92708844  0.46990459     0.05940
C106        C  0.12650881  0.87726851  0.57067892     0.02980
C107        C  0.15727368  0.89901407  0.54723679    -0.13170
C108        C  0.18766759  0.92750759  0.56770014     0.00480
C109        C  0.18640996  0.93310066  0.61075629    -0.11700
C110        C  0.16280113  0.90542417  0.63332759     0.02970
C111        C  0.12918743  0.88234863  0.61394287    -0.11120
H112        H  0.15730948  0.89422148  0.51382342     0.08560
H113        H  0.21094040  0.95227913  0.62715406     0.06090
H114        H  0.11004364  0.86253335  0.63262850     0.05940
O115        O  0.05303470  0.74289857  0.58356164    -0.80290
O116        O  0.04763790  0.82565783  0.41498197    -0.80310
O117        O  0.09794745  0.72205752  0.45192157    -0.80320
O118        O  0.08260318  0.85195780  0.51294981    -0.80260
O119        O  0.05126206  0.73850317  0.40335516    -0.80390
O120        O  0.06618004  0.82711436  0.57215352    -0.80300
O121        O  0.07151112  0.85468187  0.47537200    -0.80290
O122        O  0.09937234  0.72316256  0.54012971    -0.80330
C123        C  0.08502718  0.72321847  0.57615107     1.09400
C124        C  0.07219339  0.85255643  0.43587721     1.09290
C125        C  0.08390856  0.72001373  0.41438614     1.09420
C126        C  0.09135504  0.84983307  0.55127046     1.09300
O127        O  0.97284822  0.82687970  0.54566234    -0.80290
O128        O  0.97221728  0.72344034  0.43748700    -0.80370
O129        O  0.01722838  0.68616824  0.53482216    -0.80300
O130        O  0.99269631  0.86330500  0.46353445    -0.80280
O131        O  0.95959369  0.80641334  0.44743450    -0.80330
O132        O  0.97350533  0.73577354  0.54802751    -0.80300
O133        O  0.00994833  0.88351659  0.53381897    -0.80260
O134        O  0.02064769  0.67924684  0.44970852    -0.80330
Co135      Co  0.01754041  0.78249448  0.55494952     1.51530
Co136      Co  0.00936711  0.77424638  0.43068617     1.51690
Co137      Co  0.05716327  0.70971082  0.49418103     1.51570
Co138      Co  0.02438453  0.83133219  0.50682287     1.51470
O139        O  0.03459723  0.77158718  0.49133152    -1.42220
C140        C  0.97687614  0.86708297  0.54728271     1.09330
C141        C  0.98535798  0.68692545  0.43403882     1.09420
C142        C  0.98429740  0.69813675  0.55119548     1.09350
C143        C  0.95821789  0.84512288  0.45370824     1.09330
C144        C  0.37939405  0.60517082  0.93427055     0.02980
C145        C  0.35913958  0.62738146  0.90424415    -0.13170
C146        C  0.37653509  0.66492767  0.89403684     0.00480
C147        C  0.41609825  0.67881975  0.90801871    -0.11700
C148        C  0.43652382  0.66056974  0.94050080     0.02970
C149        C  0.41798940  0.62261031  0.95419303    -0.11120
H150        H  0.32834826  0.61739411  0.89125148     0.08560
H151        H  0.42879895  0.70719019  0.89564908     0.06090
H152        H  0.43185186  0.60813168  0.98088392     0.05940
C153        C  0.38768859  0.96068699  0.55935413     0.02980
C154        C  0.38600666  0.91822476  0.56314369    -0.13170
C155        C  0.40860727  0.90127653  0.59569982     0.00480
C156        C  0.44160250  0.92333417  0.61747729    -0.11700
C157        C  0.44406829  0.96610269  0.61685238     0.02970
C158        C  0.41832784  0.98485856  0.58561432    -0.11120
H159        H  0.36057150  0.89976593  0.54741437     0.08560
H160        H  0.45814982  0.90843962  0.64251177     0.06090
H161        H  0.42050232  0.01790015  0.58326890     0.05940
C162        C  0.28634762  0.78240929  0.78780185     0.02130
C163        C  0.26338174  0.80227317  0.75788811     0.02130
C164        C  0.28327939  0.82338575  0.72727431     0.02130
C165        C  0.32493210  0.81589565  0.71939125     0.02130
C166        C  0.34877183  0.79549146  0.74864001     0.02130
C167        C  0.32917308  0.77804939  0.78216393     0.02130
C168        C  0.12253641  0.71781816  0.68479330     0.02980
C169        C  0.11706231  0.73063548  0.64450285    -0.13170
C170        C  0.10391913  0.70281125  0.61237543     0.00480
C171        C  0.09641121  0.66025215  0.62195400    -0.11700
C172        C  0.10368438  0.64730616  0.66377085     0.02970
C173        C  0.11539551  0.67711689  0.69434845    -0.11120
H174        H  0.12413042  0.76277343  0.63800171     0.08560
H175        H  0.08274830  0.63859862  0.59832115     0.06090
H176        H  0.12132026  0.66826162  0.72630118     0.05940
O177        O  0.97405728  0.58377866  0.69996058    -0.80290
O178        O  0.96364054  0.48131318  0.77851897    -0.80310
O179        O  0.01598698  0.48562891  0.64154132    -0.80320
O180        O  0.01782771  0.57304389  0.84721418    -0.80260
O181        O  0.97140891  0.47305227  0.69024463    -0.80390
O182        O  0.97676091  0.58195668  0.79235599    -0.80300
O183        O  0.00499365  0.50316681  0.82931719    -0.80290
O184        O  0.01544436  0.56999121  0.64807616    -0.80330
C185        C  0.98361631  0.58693374  0.66156215     1.09400
C186        C  0.97058359  0.48619676  0.81761828     1.09290
C187        C  0.98254891  0.46833049  0.65240376     1.09420
C188        C  0.98317713  0.58480238  0.83268465     1.09300
O189        O  0.07040216  0.61001893  0.78877685    -0.80290
O190        O  0.04950734  0.43988172  0.70128079    -0.80370
O191        O  0.09871551  0.57421279  0.68011413    -0.80300
O192        O  0.07910069  0.51459925  0.81477345    -0.80280
O193        O  0.05338280  0.45352314  0.78933885    -0.80330
O194        O  0.05397536  0.61744917  0.70381159    -0.80300
O195        O  0.08960638  0.55189522  0.81218125    -0.80260
O196        O  0.09532043  0.48509940  0.67722870    -0.80330
Co197      Co  0.01982922  0.59086841  0.74554480     1.51530
Co198      Co  0.01120742  0.46752826  0.74004737     1.51690
Co199      Co  0.05518075  0.52900170  0.66938024     1.51570
Co200      Co  0.03043307  0.54577770  0.79380080     1.51470
O201        O  0.03656384  0.52756703  0.73387086    -1.42220
C202        C  0.09730761  0.59014838  0.81056950     1.09330
C203        C  0.07984838  0.44836505  0.67844834     1.09420
C204        C  0.08475072  0.61015760  0.68207618     1.09350
C205        C  0.07930537  0.47529709  0.81437060     1.09330
C206        C  0.10955734  0.45738280  0.84544939     0.02980
C207        C  0.12473651  0.48001626  0.88320564    -0.13170
C208        C  0.15661790  0.46420800  0.91008162     0.00480
C209        C  0.16838088  0.42433778  0.90104169    -0.11700
C210        C  0.16065584  0.40684091  0.86128007     0.02970
C211        C  0.12951316  0.42134932  0.83439427    -0.11120
H212        H  0.11319853  0.51015118  0.89052365     0.08560
H213        H  0.19221634  0.41112315  0.92081339     0.06090
H214        H  0.12437259  0.40736958  0.80332224     0.05940
C215        C  0.17323102  0.67194074  0.86304450     0.02980
C216        C  0.14067938  0.65282704  0.83769827    -0.13170
C217        C  0.13340476  0.61003642  0.83750923     0.00480
C218        C  0.16133463  0.58698696  0.86324007    -0.11700
C219        C  0.19205086  0.60743192  0.89170071     0.02970
C220        C  0.19395767  0.65027438  0.89366640    -0.11120
H221        H  0.12465680  0.67060701  0.81459064     0.08560
H222        H  0.15929964  0.55374889  0.86119168     0.06090
H223        H  0.21856173  0.66630577  0.91310951     0.05940
C224        C  0.50799081  0.84957095  0.81618638     0.02980
C225        C  0.51949150  0.89058711  0.81022293    -0.13170
C226        C  0.50346752  0.92048374  0.83699734     0.00480
C227        C  0.49359560  0.90770951  0.87861196    -0.11700
C228        C  0.49699090  0.86475839  0.88940245     0.02970
C229        C  0.50647935  0.83679950  0.85696113    -0.11120
H230        H  0.52622699  0.89867105  0.77869499     0.08560
H231        H  0.48216237  0.92980967  0.90097053     0.06090
H232        H  0.50414854  0.80386437  0.86147966     0.05940
C233        C  0.64890833  0.88988641  0.86025396     0.02980
C234        C  0.63550132  0.92601788  0.84428142    -0.13170
C235        C  0.60425567  0.94730636  0.86299685     0.00480
C236        C  0.58808899  0.93179811  0.90099869    -0.11700
C237        C  0.60252344  0.89359635  0.91675324     0.02970
C238        C  0.63408392  0.87452510  0.89630969    -0.11120
H239        H  0.64762656  0.93571915  0.81499733     0.08560
H240        H  0.56325016  0.94731717  0.91607012     0.06090
H241        H  0.64538278  0.84532710  0.90651463     0.05940
C242        C  0.10717488  0.63217455  0.33508975     0.02980
C243        C  0.13732137  0.65314625  0.31325747    -0.13170
C244        C  0.14936769  0.69350704  0.32545015     0.00480
C245        C  0.13210566  0.71443927  0.35853890    -0.11700
C246        C  0.10376225  0.69444824  0.38229781     0.02970
C247        C  0.09163243  0.65249597  0.37127640    -0.11120
H248        H  0.15126331  0.63854388  0.28660855     0.08560
H249        H  0.14218035  0.74625250  0.36672787     0.06090
H250        H  0.07158669  0.63593154  0.39119136     0.05940
C251        C  0.35243731  0.82833287  0.31753687     0.02130
C252        C  0.36916669  0.81873004  0.27795050     0.02130
C253        C  0.34727701  0.79014540  0.25053484     0.02130
C254        C  0.30596593  0.77869013  0.25620046     0.02130
C255        C  0.28708149  0.79355197  0.29110037     0.02130
C256        C  0.30846033  0.82022364  0.32084196     0.02130
C257        C  0.37281430  0.62915922  0.08395597     0.02980
C258        C  0.37530744  0.63536045  0.12712980    -0.13170
C259        C  0.40357512  0.66535957  0.14544797     0.00480
C260        C  0.43433798  0.68394639  0.12222661    -0.11700
C261        C  0.42683458  0.68673190  0.07965526     0.02970
C262        C  0.39663215  0.65761593  0.05973328    -0.11120
H263        H  0.35286618  0.61979232  0.14617094     0.08560
H264        H  0.45662933  0.70600712  0.13816706     0.06090
H265        H  0.39209970  0.65680203  0.02625448     0.05940
O266        O  0.35595044  0.56945146  0.99085853    -0.80290
O267        O  0.22818198  0.60303682  0.04571628    -0.80310
O268        O  0.23830675  0.55255192  0.90984757    -0.80320
O269        O  0.32242857  0.56883300  0.08575442    -0.80260
O270        O  0.22802863  0.60030947  0.95788518    -0.80390
O271        O  0.35176077  0.58196884  0.02793078    -0.80300
O272        O  0.23638981  0.55691850  0.09230377    -0.80290
O273        O  0.32656305  0.54835026  0.92897031    -0.80330
C274        C  0.35344695  0.57145314  0.95144385     1.09400
C275        C  0.22276877  0.59106242  0.08220409     1.09290
C276        C  0.22207038  0.58633967  0.92063202     1.09420
C277        C  0.34670292  0.59282675  0.06522443     1.09300
O278        O  0.38121749  0.50929751  0.05194969    -0.80290
O279        O  0.17850829  0.52488345  0.95471292    -0.80370
O280        O  0.30488426  0.46249390  0.96058126    -0.80300
O281        O  0.23096085  0.47809593  0.05453680    -0.80280
O282        O  0.18346900  0.52398531  0.03973537    -0.80330
O283        O  0.36222821  0.49436595  0.97982727    -0.80300
O284        O  0.32255810  0.47466507  0.06220889    -0.80260
O285        O  0.22265500  0.47601330  0.94785587    -0.80330
Co286      Co  0.32975775  0.52483122  0.02232692     1.51530
Co287      Co  0.21047768  0.56169190  0.00012780     1.51690
Co288      Co  0.27406142  0.51146909  0.94134189     1.51570
Co289      Co  0.27790448  0.52068022  0.06624824     1.51470
O290        O  0.27096874  0.53648027  0.00157692    -1.42220
C291        C  0.36339088  0.47679630  0.06451359     1.09330
C292        C  0.18650420  0.48937184  0.94013561     1.09420
C293        C  0.34347800  0.46078015  0.96981154     1.09350
C294        C  0.19303656  0.48956227  0.05380921     1.09330
O295        O  0.99949526  0.49983883  0.33139744    -0.80290
O296        O  0.07604585  0.52248927  0.15439844    -0.80310
O297        O  0.97930330  0.47375494  0.19194976    -0.80320
O298        O  0.08187803  0.47602586  0.28927060    -0.80260
O299        O  0.99151256  0.52050361  0.14571667    -0.80390
O300        O  0.07247786  0.50701023  0.34988599    -0.80300
O301        O  0.08651283  0.47699559  0.20226055    -0.80290
O302        O  0.97949050  0.46321762  0.27704440    -0.80330
C303        C  0.98191657  0.46722511  0.31637555     1.09400
C304        C  0.08939766  0.48811473  0.16488865     1.09290
C305        C  0.97587649  0.48562181  0.15471218     1.09420
C306        C  0.08414543  0.47551789  0.32943249     1.09300
O307        O  0.05203308  0.58122230  0.32184336    -0.80290
O308        O  0.99038565  0.59859194  0.18754457    -0.80370
O309        O  0.95165841  0.55196010  0.28882388    -0.80300
O310        O  0.12403624  0.55811255  0.20864522    -0.80280
O311        O  0.07756545  0.60320598  0.19601554    -0.80330
O312        O  0.01244519  0.57242990  0.32119386    -0.80300
O313        O  0.11044950  0.56854191  0.29237261    -0.80260
O314        O  0.94236704  0.55066442  0.20000880    -0.80330
Co315      Co  0.04462788  0.52522824  0.29839859     1.51530
Co316      Co  0.03391137  0.55990235  0.17721688     1.51690
Co317      Co  0.96865488  0.51183000  0.24005213     1.51570
Co318      Co  0.09397874  0.52101535  0.24784906     1.51470
O319        O  0.02982619  0.53719982  0.23860470    -1.42220
C320        C  0.08960100  0.59198176  0.31638175     1.09330
C321        C  0.95366129  0.58314403  0.18188418     1.09420
C322        C  0.97266408  0.57523749  0.31671954     1.09350
C323        C  0.11475879  0.59206013  0.19366310     1.09330
C324        C  0.14368232  0.40177517  0.10761512     0.02980
C325        C  0.16123324  0.42358857  0.07526000    -0.13170
C326        C  0.16017710  0.46587418  0.07515974     0.00480
C327        C  0.13179540  0.48555186  0.10074796    -0.11700
C328        C  0.11286001  0.46451742  0.13345977     0.02970
C329        C  0.12056910  0.42270920  0.13759655    -0.11120
H330        H  0.17890371  0.40834939  0.05165387     0.08560
H331        H  0.12649474  0.51774595  0.09667698     0.06090
H332        H  0.10961748  0.40705224  0.16447673     0.05940
C333        C  0.88371727  0.45376420  0.07864225     0.02980
C334        C  0.92024317  0.47687142  0.09461216    -0.13170
C335        C  0.94898112  0.46005416  0.12342089     0.00480
C336        C  0.94446914  0.41843274  0.13055872    -0.11700
C337        C  0.90584878  0.39755583  0.12235360     0.02970
C338        C  0.87594953  0.41434344  0.09470589    -0.11120
H339        H  0.92578907  0.50782856  0.08530122     0.08560
H340        H  0.96791724  0.40473504  0.15036678     0.06090
H341        H  0.84593498  0.39827967  0.08795649     0.05940
C342        C  0.86241561  0.64409618  0.16313912     0.02980
C343        C  0.89994638  0.63075972  0.17894037    -0.13170
C344        C  0.92198850  0.60364618  0.15653644     0.00480
C345        C  0.90719178  0.59143145  0.11524421    -0.11700
C346        C  0.86869054  0.60600577  0.09823134     0.02970
C347        C  0.84642998  0.63269515  0.12318362    -0.11120
H348        H  0.91026996  0.63899655  0.21102673     0.08560
H349        H  0.92536578  0.57137109  0.09673280     0.06090
H350        H  0.81597484  0.64265620  0.11277298     0.05940
O351        O  0.73746234  0.62026659  0.02168913    -0.80290
O352        O  0.82741084  0.45037724  0.02409410    -0.80310
O353        O  0.72781934  0.48700199  0.06413820    -0.80320
O354        O  0.85297855  0.55165841  0.04757636    -0.80260
O355        O  0.73970990  0.43785392  0.01832863    -0.80390
O356        O  0.82363763  0.60993224  0.03553693    -0.80300
O357        O  0.85462066  0.51116154  0.04398638    -0.80290
O358        O  0.72608209  0.57180563  0.06460178    -0.80330
C359        C  0.71841994  0.60736887  0.05243401     1.09400
C360        C  0.85328719  0.47232025  0.04790350     1.09290
C361        C  0.72276064  0.44986657  0.05143106     1.09420
C362        C  0.84800434  0.58891970  0.05826488     1.09300
O363        O  0.82778032  0.58707209  0.94357919    -0.80290
O364        O  0.73353566  0.47080795  0.93892751    -0.80370
O365        O  0.68466710  0.56643075  0.98445197    -0.80300
O366        O  0.88147617  0.51073196  0.97035040    -0.80280
O367        O  0.82758186  0.47784353  0.93654514    -0.80330
O368        O  0.73469268  0.58494448  0.94234764    -0.80300
O369        O  0.88335133  0.56165614  0.97374528    -0.80260
O370        O  0.68458119  0.48171311  0.98395453    -0.80330
Co371      Co  0.78089063  0.59313465  0.98703858     1.51530
Co372      Co  0.78150212  0.46609815  0.98102593     1.51690
Co373      Co  0.71100819  0.52687501  0.02328507     1.51570
Co374      Co  0.83132250  0.53394278  0.99127246     1.51470
O375        O  0.77275199  0.52898968  0.00336048    -1.42220
C376        C  0.86828479  0.58392445  0.94580126     1.09330
C377        C  0.69578724  0.46448516  0.95037094     1.09420
C378        C  0.69630717  0.58545634  0.95298913     1.09350
C379        C  0.86777650  0.48718278  0.94021052     1.09330
C380        C  0.59441133  0.96512700  0.34792802     0.02980
C381        C  0.60196125  0.92438838  0.33851063    -0.13170
C382        C  0.63516153  0.90640339  0.35818177     0.00480
C383        C  0.65607476  0.92457268  0.39342428    -0.11700
C384        C  0.65007905  0.96563565  0.40436080     0.02970
C385        C  0.61834661  0.98624596  0.38161019    -0.11120
H386        H  0.58731795  0.90898827  0.31068652     0.08560
H387        H  0.68233808  0.90911281  0.40719850     0.06090
H388        H  0.61417811  0.01870874  0.38824609     0.05940
C389        C  0.95265767  0.60472943  0.34717722     0.02980
C390        C  0.97715693  0.62469156  0.38110393    -0.13170
C391        C  0.96008925  0.65368662  0.40927176     0.00480
C392        C  0.91737773  0.65663665  0.40790575    -0.11700
C393        C  0.89417727  0.64308058  0.37206152     0.02970
C394        C  0.91091084  0.61619474  0.34200631    -0.11120
H395        H  0.00934246  0.61839701  0.38477691     0.08560
H396        H  0.90376717  0.67803907  0.42980193     0.06090
H397        H  0.89260712  0.60670741  0.31389171     0.05940
C398        C  0.77690110  0.74580739  0.31571478     0.02130
C399        C  0.75411571  0.78121768  0.31986016     0.02130
C400        C  0.73889255  0.79937334  0.28383501     0.02130
C401        C  0.74808916  0.78428457  0.24470006     0.02130
C402        C  0.76265229  0.74525786  0.24171683     0.02130
C403        C  0.78244517  0.72936183  0.27606670     0.02130
C404        C  0.65218539  0.64783923  0.13424736     0.02980
C405        C  0.62713691  0.67682150  0.11594001    -0.13170
C406        C  0.63570302  0.68941577  0.07597538     0.00480
C407        C  0.66609557  0.66712622  0.05345719    -0.11700
C408        C  0.68355713  0.63086187  0.07045380     0.02970
C409        C  0.66960971  0.61838635  0.10876205    -0.11120
H410        H  0.60900271  0.69624321  0.13585910     0.08560
H411        H  0.67606012  0.67782049  0.02383359     0.06090
H412        H  0.68445280  0.59313730  0.12381098     0.05940
O413        O  0.58644544  0.73635761  0.94884833    -0.80290
O414        O  0.48284890  0.80653597  0.93337416    -0.80310
O415        O  0.48705900  0.67919566  0.99688936    -0.80320
O416        O  0.56896091  0.88471119  0.98226683    -0.80260
O417        O  0.47822848  0.72388349  0.94889978    -0.80390
O418        O  0.58465231  0.82813551  0.94725592    -0.80300
O419        O  0.49899108  0.86363253  0.96572388    -0.80290
O420        O  0.57231569  0.68741674  0.99333484    -0.80330
C421        C  0.58813412  0.69855543  0.95981988     1.09400
C422        C  0.48980715  0.84526093  0.93144479     1.09290
C423        C  0.47047060  0.68804236  0.96233245     1.09420
C424        C  0.58474530  0.86842339  0.95063961     1.09300
O425        O  0.60923774  0.82892711  0.03954574    -0.80290
O426        O  0.43884008  0.73593579  0.02557794    -0.80370
O427        O  0.57676569  0.73292622  0.07227105    -0.80300
O428        O  0.51097969  0.85474995  0.04410135    -0.80280
O429        O  0.45012100  0.82466074  0.02171219    -0.80330
O430        O  0.62396944  0.74291031  0.02764172    -0.80300
O431        O  0.54934272  0.85436736  0.05402041    -0.80260
O432        O  0.48963895  0.72791647  0.07184770    -0.80330
Co433      Co  0.59356337  0.78346571  0.99215143     1.51530
Co434      Co  0.46703438  0.77377625  0.98394367     1.51690
Co435      Co  0.53165877  0.71242352  0.03235293     1.51570
Co436      Co  0.54279603  0.83235606  0.99690994     1.51470
O437        O  0.52859686  0.77270899  0.00792854    -1.42220
C438        C  0.58790424  0.85290403  0.06283932     1.09330
C439        C  0.45226124  0.71958641  0.05870186     1.09420
C440        C  0.61248932  0.72523820  0.05965549     1.09350
C441        C  0.47130894  0.85188213  0.04561712     1.09330
C442        C  0.45259543  0.88191657  0.07626275     0.02980
C443        C  0.41927293  0.86881623  0.10047162    -0.13170
C444        C  0.40624466  0.89501395  0.13320569     0.00480
C445        C  0.41882207  0.93660566  0.13388203    -0.11700
C446        C  0.45866683  0.94668058  0.12146064     0.02970
C447        C  0.47442889  0.92053007  0.08941769    -0.11120
H448        H  0.40839167  0.83666993  0.09840562     0.08560
H449        H  0.40589196  0.95766368  0.15614246     0.06090
H450        H  0.50409209  0.92895948  0.07646344     0.05940
C451        C  0.66815139  0.89345762  0.14221909     0.02980
C452        C  0.65040194  0.88090803  0.10344198    -0.13170
C453        C  0.60725215  0.88054169  0.09745296     0.00480
C454        C  0.58392821  0.90354921  0.12684894    -0.11700
C455        C  0.60452832  0.92538752  0.16194230     0.02970
C456        C  0.64714399  0.91964938  0.16912988    -0.11120
H457        H  0.66837489  0.86179040  0.08303482     0.08560
H458        H  0.55040694  0.90397582  0.12303667     0.06090
H459        H  0.66230881  0.93066950  0.19850850     0.05940
C460        C  0.63368288  0.37181037  0.07777498     0.02980
C461        C  0.65979620  0.39808082  0.05407702    -0.13170
C462        C  0.69410036  0.42188128  0.07361106     0.00480
C463        C  0.70199966  0.41878715  0.11597245    -0.11700
C464        C  0.68101359  0.38815938  0.13704787     0.02970
C465        C  0.64468960  0.36778636  0.11969020    -0.11120
H466        H  0.65360581  0.40005227  0.02106312     0.08560
H467        H  0.72998451  0.43429354  0.13044351     0.06090
H468        H  0.62886243  0.34431377  0.13718491     0.05940
C469        C  0.84099696  0.29126935  0.28457216     0.02130
C470        C  0.83245478  0.29753954  0.24193006     0.02130
C471        C  0.79021457  0.28997772  0.22776409     0.02130
C472        C  0.76276100  0.26673962  0.25158978     0.02130
C473        C  0.77702092  0.25638898  0.29143656     0.02130
C474        C  0.82036827  0.25511407  0.29737733     0.02130
C475        C  0.63040904  0.11749128  0.33498034     0.02980
C476        C  0.63608090  0.16049315  0.34357020    -0.13170
C477        C  0.66261503  0.17547426  0.37792036     0.00480
C478        C  0.67533988  0.14677731  0.40617553    -0.11700
C479        C  0.68413497  0.10749568  0.39107574     0.02970
C480        C  0.65906189  0.09151092  0.35595544    -0.11120
H481        H  0.62102791  0.18169667  0.32322182     0.08560
H482        H  0.68640511  0.15737096  0.43705577     0.06090
H483        H  0.66021438  0.05922689  0.34651173     0.05940
O484        O  0.56886379  0.02502400  0.31774815    -0.80290
O485        O  0.60079561  0.07740556  0.19345390    -0.80310
O486        O  0.54732633  0.94536297  0.20458384    -0.80320
O487        O  0.56866768  0.12028165  0.28522177    -0.80260
O488        O  0.59758863  0.99162346  0.19514885    -0.80390
O489        O  0.58235597  0.06204086  0.31235616    -0.80300
O490        O  0.55634515  0.12536444  0.19867137    -0.80290
O491        O  0.54171857  0.96436771  0.29151768    -0.80330
C492        C  0.56688584  0.98564132  0.31746660     1.09400
C493        C  0.58959511  0.11283142  0.18421277     1.09290
C494        C  0.58300330  0.95483563  0.19038038     1.09420
C495        C  0.59342775  0.09941702  0.30827246     1.09300
O496        O  0.50907214  0.08717526  0.34375865    -0.80290
O497        O  0.52135096  0.98830046  0.14439280    -0.80370
O498        O  0.45501711  0.99329640  0.27293877    -0.80300
O499        O  0.47614516  0.08933066  0.19523006    -0.80280
O500        O  0.52133467  0.07231018  0.14740636    -0.80330
O501        O  0.49319846  0.01625472  0.32575195    -0.80300
O502        O  0.47302942  0.09649496  0.28560530    -0.80260
O503        O  0.47036711  0.98392448  0.18749967    -0.80330
Co504      Co  0.52359557  0.05760061  0.29245040     1.51530
Co505      Co  0.55904116  0.03304685  0.17551996     1.51690
Co506      Co  0.50529643  0.97681315  0.23935828     1.51570
Co507      Co  0.51941273  0.10086113  0.24119737     1.51470
O508        O  0.53263328  0.03596008  0.23485303    -1.42220
C509        C  0.47554751  0.09852886  0.32613776     1.09330
C510        C  0.48444867  0.97570839  0.15167993     1.09420
C511        C  0.45937842  0.99914767  0.31213517     1.09350
C512        C  0.48743666  0.08811962  0.15738364     1.09330
O513        O  0.49357782  0.36664856  0.97739244    -0.80290
O514        O  0.52080649  0.18766272  0.03510117    -0.80310
O515        O  0.46960051  0.22753122  0.94250958    -0.80320
O516        O  0.47796440  0.32588480  0.06011000    -0.80260
O517        O  0.51875438  0.18316163  0.95000036    -0.80390
O518        O  0.51275727  0.38386209  0.04871989    -0.80300
O519        O  0.47758335  0.23615110  0.05323633    -0.80290
O520        O  0.45889017  0.31044429  0.96155449    -0.80330
C521        C  0.45859263  0.34880588  0.97010813     1.09400
C522        C  0.48768337  0.19835449  0.05212515     1.09290
C523        C  0.48291936  0.19127554  0.93564218     1.09420
C524        C  0.48065098  0.36613528  0.06288240     1.09300
O525        O  0.58422846  0.35381649  0.02220627    -0.80290
O526        O  0.59594876  0.22532780  0.94753102    -0.80370
O527        O  0.54409206  0.33139174  0.92473268    -0.80300
O528        O  0.56003817  0.23782381  0.08588592    -0.80280
O529        O  0.60285853  0.22850859  0.03618277    -0.80330
O530        O  0.57158719  0.35829541  0.98497895    -0.80300
O531        O  0.57279849  0.32309593  0.07984860    -0.80260
O532        O  0.54573498  0.24706325  0.90572094    -0.80330
Co533      Co  0.52622411  0.33311111  0.01773286     1.51530
Co534      Co  0.55828509  0.21273936  0.99315054     1.51690
Co535      Co  0.50623721  0.27975699  0.93845720     1.51570
Co536      Co  0.52293780  0.28061422  0.06239381     1.51470
O537        O  0.53545539  0.27424570  0.99666032    -1.42220
C538        C  0.59603769  0.34778643  0.05921368     1.09330
C539        C  0.57866811  0.22730886  0.91137609     1.09420
C540        C  0.57086867  0.35629208  0.94534816     1.09350
C541        C  0.59232084  0.22157559  0.07280969     1.09330
C542        C  0.40213249  0.14773438  0.11216878     0.02980
C543        C  0.42194024  0.11575129  0.13104177    -0.13170
C544        C  0.46392659  0.11047478  0.12531183     0.00480
C545        C  0.48445470  0.13407212  0.09515630    -0.11700
C546        C  0.46394622  0.16654918  0.07523959     0.02970
C547        C  0.42231379  0.17239343  0.08366626    -0.11120
H548        H  0.40643485  0.09942040  0.15535587     0.08560
H549        H  0.51720909  0.12987005  0.09029788     0.06090
H550        H  0.40690189  0.19893135  0.07180745     0.05940
C551        C  0.45145137  0.10170452  0.85214937     0.02980
C552        C  0.47494106  0.12446677  0.88597411    -0.13170
C553        C  0.45779408  0.15922043  0.90772321     0.00480
C554        C  0.41736707  0.16887234  0.89559322    -0.11700
C555        C  0.39991476  0.15249223  0.85776390     0.02970
C556        C  0.41271735  0.11560259  0.84021463    -0.11120
H557        H  0.50686453  0.11690038  0.89346032     0.08560
H558        H  0.40450526  0.19672588  0.90854266     0.06090
H559        H  0.39751915  0.10349629  0.81121853     0.05940
C560        C  0.59923270  0.20575363  0.79973874     0.02980
C561        C  0.59780112  0.22597532  0.83865961    -0.13170
C562        C  0.59192326  0.20344038  0.87412831     0.00480
C563        C  0.58818970  0.15931289  0.86917786    -0.11700
C564        C  0.58866687  0.14011992  0.82830798     0.02970
C565        C  0.58642411  0.16483064  0.79436411    -0.11120
H566        H  0.60521013  0.25892737  0.84184311     0.08560
H567        H  0.58314756  0.14069319  0.89588177     0.06090
H568        H  0.58580303  0.15078483  0.76317137     0.05940
O569        O  0.62062378  0.05892140  0.70783565    -0.80290
O570        O  0.44929362  0.04738841  0.79497901    -0.80310
O571        O  0.48506737  0.09903610  0.69825584    -0.80320
O572        O  0.54709642  0.07986460  0.82507715    -0.80260
O573        O  0.43490215  0.05210737  0.70532874    -0.80390
O574        O  0.60507034  0.07562935  0.79219364    -0.80300
O575        O  0.50984196  0.06900485  0.82635933    -0.80290
O576        O  0.57264098  0.10237928  0.69887911    -0.80330
C577        C  0.60875112  0.09090763  0.69089520     1.09400
C578        C  0.47031241  0.07055059  0.82306079     1.09290
C579        C  0.44772044  0.08587011  0.68970644     1.09420
C580        C  0.58196541  0.09585972  0.81705580     1.09300
O581        O  0.58958233  0.97993213  0.79720665    -0.80290
O582        O  0.46987109  0.97450306  0.68991083    -0.80370
O583        O  0.56848896  0.02246430  0.65526458    -0.80300
O584        O  0.49986673  0.99455998  0.83350285    -0.80280
O585        O  0.48295604  0.96072374  0.77680084    -0.80330
O586        O  0.58657442  0.97971173  0.70483466    -0.80300
O587        O  0.57040110  0.01163090  0.85451409    -0.80260
O588        O  0.48352385  0.02496154  0.64812789    -0.80330
Co589      Co  0.59239780  0.02430155  0.75055825     1.51530
Co590      Co  0.46425786  0.01017432  0.74282386     1.51690
Co591      Co  0.52763384  0.06072492  0.68121493     1.51570
Co592      Co  0.54333607  0.02437768  0.80194465     1.51470
O593        O  0.52613926  0.03521727  0.74136921    -1.42220
C594        C  0.58780384  0.98165952  0.83777216     1.09330
C595        C  0.46747542  0.98941694  0.65344655     1.09420
C596        C  0.58601440  0.98998021  0.66639996     1.09350
C597        C  0.49199841  0.96019555  0.81595317     1.09330
C598        C  0.60513694  0.38021550  0.92489511     0.02980
C599        C  0.62697323  0.41689397  0.94322891    -0.13170
C600        C  0.66639234  0.43190756  0.92808570     0.00480
C601        C  0.68218276  0.40971867  0.89493041    -0.11700
C602        C  0.66184722  0.37332645  0.87893921     0.02970
C603        C  0.62314355  0.35967841  0.89205346    -0.11120
H604        H  0.61453800  0.43211714  0.97026084     0.08560
H605        H  0.71284126  0.41821766  0.88394457     0.06090
H606        H  0.60953949  0.33028112  0.87968974     0.05940
C607        C  0.95397306  0.37831461  0.57041289     0.02980
C608        C  0.97468037  0.41619513  0.58735220    -0.13170
C609        C  0.95811114  0.43897010  0.62179118     0.00480
C610        C  0.91928631  0.42652356  0.63416571    -0.11700
C611        C  0.90579113  0.38565565  0.62688520     0.02970
C612        C  0.92056015  0.36226888  0.59298168    -0.11120
H613        H  0.00374022  0.42691264  0.57486774     0.08560
H614        H  0.90582787  0.44460439  0.65890726     0.06090
H615        H  0.90906467  0.33057589  0.58708971     0.05940
C616        C  0.75636001  0.26063017  0.75494908     0.02130
C617        C  0.77607075  0.28048228  0.78994408     0.02130
C618        C  0.81640128  0.29786338  0.78667102     0.02130
C619        C  0.82960585  0.30747773  0.74704813     0.02130
C620        C  0.80686011  0.29117636  0.71166782     0.02130
C621        C  0.77087022  0.26674379  0.71585658     0.02130
C622        C  0.65346106  0.16872664  0.61744991     0.02980
C623        C  0.62816342  0.15053564  0.64693160    -0.13170
C624        C  0.63324254  0.10921412  0.65637268     0.00480
C625        C  0.66270864  0.08677380  0.63289303    -0.11700
C626        C  0.68133876  0.10438349  0.59733094     0.02970
C627        C  0.66915822  0.14346162  0.58633816    -0.11120
H628        H  0.61185954  0.17021063  0.66826402     0.08560
H629        H  0.67121574  0.05650802  0.64230724     0.06090
H630        H  0.68482615  0.15844279  0.56132898     0.05940
O631        O  0.73118170  0.97567211  0.55080922    -0.80290
O632        O  0.80471707  0.96207916  0.44609714    -0.80310
O633        O  0.67579994  0.02228523  0.44900467    -0.80320
O634        O  0.88157946  0.01308666  0.53495891    -0.80260
O635        O  0.71949725  0.97365750  0.43635979    -0.80390
O636        O  0.82389002  0.97847846  0.55093318    -0.80300
O637        O  0.86174936  0.99545391  0.46465705    -0.80290
O638        O  0.68127774  0.01823614  0.53354699    -0.80330
C639        C  0.69276238  0.98609574  0.55150459     1.09400
C640        C  0.84383521  0.96136240  0.45497540     1.09290
C641        C  0.68305806  0.98770367  0.43232245     1.09420
C642        C  0.86467372  0.98152952  0.55031343     1.09300
O643        O  0.81727645  0.07240826  0.57085147    -0.80290
O644        O  0.73226710  0.05196362  0.40119066    -0.80370
O645        O  0.72566461  0.09799078  0.53856567    -0.80300
O646        O  0.85140792  0.07191869  0.47399038    -0.80280
O647        O  0.82156970  0.04791555  0.41384609    -0.80330
O648        O  0.73321176  0.05411298  0.58605044    -0.80300
O649        O  0.84822204  0.08174588  0.51220897    -0.80260
O650        O  0.72548364  0.09667546  0.45270556    -0.80330
Co651      Co  0.77650096  0.02092535  0.55706197     1.51530
Co652      Co  0.77028393  0.01042661  0.42936665     1.51690
Co653      Co  0.70755094  0.05758445  0.49358259     1.51570
Co654      Co  0.82869946  0.02509880  0.50731586     1.51470
O655        O  0.76776967  0.03345528  0.49140500    -1.42220
C656        C  0.84031159  0.09514951  0.54813701     1.09330
C657        C  0.71667511  0.08491629  0.41532826     1.09420
C658        C  0.71616547  0.08583061  0.57385607     1.09350
C659        C  0.84874263  0.07234603  0.43424283     1.09330
C660        C  0.87860368  0.10173969  0.41305851     0.02980
C661        C  0.87811530  0.10251165  0.36956331    -0.13170
C662        C  0.90017878  0.13407422  0.34906605     0.00480
C663        C  0.92736293  0.16217356  0.37301785    -0.11700
C664        C  0.93166639  0.16068940  0.41606317     0.02970
C665        C  0.90685568  0.13034555  0.43607914    -0.11120
H666        H  0.85795644  0.08004897  0.35187194     0.08560
H667        H  0.94383024  0.18739245  0.35891224     0.06090
H668        H  0.90865074  0.12987652  0.46960527     0.05940
C669        C  0.83018038  0.20717680  0.56891225     0.02980
C670        C  0.82247929  0.16469449  0.57042729    -0.13170
C671        C  0.85366369  0.13828421  0.55923387     0.00480
C672        C  0.89392988  0.15576966  0.55016361    -0.11700
C673        C  0.89979418  0.19934410  0.54824574     0.02970
C674        C  0.86477471  0.22273693  0.54960786    -0.11120
H675        H  0.79364524  0.15266674  0.58286723     0.08560
H676        H  0.91917334  0.13597464  0.54280582     0.06090
H677        H  0.86854877  0.25598245  0.54659398     0.05940
C678        C  0.37716947  0.10975122  0.59064007     0.02980
C679        C  0.38879133  0.15134964  0.58884772    -0.13170
C680        C  0.40855809  0.17159887  0.62355669     0.00480
C681        C  0.43041393  0.14955107  0.65326593    -0.11700
C682        C  0.42284454  0.10703593  0.65592834     0.02970
C683        C  0.39436121  0.08705689  0.62482363    -0.11120
H684        H  0.37386083  0.16968220  0.56546031     0.08560
H685        H  0.44752358  0.16650697  0.67879486     0.06090
H686        H  0.38516212  0.05492847  0.62764925     0.05940
C687        C  0.33088949  0.30801263  0.79927828     0.02130
C688        C  0.29369090  0.32854756  0.79230794     0.02130
C689        C  0.27355865  0.32349612  0.75340908     0.02130
C690        C  0.28753708  0.29601257  0.72374735     0.02130
C691        C  0.32858139  0.28408385  0.72697028     0.02130
C692        C  0.34780320  0.28469434  0.76680194     0.02130
O693        O  0.36078739  0.01180107  0.45948574    -0.80290
O694        O  0.18139278  0.07264057  0.48275011    -0.80310
O695        O  0.22223841  0.97861269  0.43511098    -0.80320
O696        O  0.32184566  0.09080497  0.43807442    -0.80260
O697        O  0.17695357  0.98771840  0.48354194    -0.80390
O698        O  0.37986733  0.08208089  0.47465531    -0.80300
O699        O  0.23112676  0.08931816  0.43958218    -0.80290
O700        O  0.30832042  0.98797871  0.42129555    -0.80330
C701        C  0.34748444  0.99580519  0.42537981     1.09400
C702        C  0.19271827  0.08937827  0.44973819     1.09290
C703        C  0.18542760  0.97239874  0.44822730     1.09420
C704        C  0.36244142  0.09402219  0.44134753     1.09300
O705        O  0.34828795  0.05432733  0.54698534    -0.80290
O706        O  0.22582552  0.99112995  0.55990807    -0.80370
O707        O  0.32653394  0.95795066  0.50874968    -0.80300
O708        O  0.23561546  0.12433312  0.51953633    -0.80280
O709        O  0.22394357  0.07704842  0.56374366    -0.80330
O710        O  0.35312775  0.01868175  0.53411236    -0.80300
O711        O  0.32348454  0.11351728  0.53266361    -0.80260
O712        O  0.23621849  0.94229768  0.51294720    -0.80330
Co713      Co  0.32762808  0.05268630  0.48909399     1.51530
Co714      Co  0.20784516  0.03247414  0.52112587     1.51690
Co715      Co  0.27368075  0.97200199  0.47148231     1.51570
Co716      Co  0.27765742  0.09713633  0.48368270     1.51470
O717        O  0.26888080  0.03234517  0.49718416    -1.42220
C718        C  0.34693617  0.09200469  0.55677138     1.09330
C719        C  0.21941374  0.95416252  0.54646184     1.09420
C720        C  0.35371560  0.97935606  0.53275210     1.09350
C721        C  0.21837390  0.11318903  0.55196093     1.09330
O722        O  0.01209817  0.35404509  0.53306492    -0.80290
O723        O  0.06330669  0.22095039  0.56080882    -0.80310
O724        O  0.93231272  0.24327909  0.50408623    -0.80320
O725        O  0.10668330  0.31801914  0.53129011    -0.80260
O726        O  0.97373244  0.21982414  0.55341997    -0.80390
O727        O  0.05021920  0.35121933  0.54147035    -0.80300
O728        O  0.11251909  0.23351059  0.51764890    -0.80290
O729        O  0.94994171  0.32753645  0.50990538    -0.80330
C730        C  0.97227857  0.35181838  0.53589059     1.09400
C731        C  0.10049566  0.21642770  0.54973423     1.09290
C732        C  0.93778751  0.22200186  0.53568888     1.09420
C733        C  0.08663636  0.34359395  0.55394538     1.09300
O734        O  0.07506766  0.37842684  0.46917509    -0.80290
O735        O  0.97601696  0.18271222  0.47447899    -0.80370
O736        O  0.98081588  0.31561232  0.41991913    -0.80300
O737        O  0.07806322  0.23094658  0.43674116    -0.80280
O738        O  0.06119760  0.18216028  0.47970017    -0.80330
O739        O  0.00184378  0.36668093  0.45999601    -0.80300
O740        O  0.08338317  0.31912890  0.43582550    -0.80260
O741        O  0.96583598  0.22948434  0.42741965    -0.80330
Co742      Co  0.04300648  0.32930264  0.48483380     1.51530
Co743      Co  0.01931339  0.20829246  0.51587276     1.51690
Co744      Co  0.96304347  0.27921919  0.46710045     1.51570
Co745      Co  0.08798504  0.27573068  0.48131686     1.51470
O746        O  0.02246065  0.27073383  0.49476610    -1.42220
C747        C  0.08643087  0.35906152  0.43682736     1.09330
C748        C  0.95981238  0.19270288  0.43999414     1.09420
C749        C  0.98504902  0.35436684  0.42586843     1.09350
C750        C  0.07844031  0.19319130  0.44709997     1.09330
C751        C  0.14702550  0.15387263  0.36580955     0.02980
C752        C  0.17081153  0.12501291  0.38586323    -0.13170
C753        C  0.16131359  0.11332036  0.42567612     0.00480
C754        C  0.12581166  0.13086499  0.44418056    -0.11700
C755        C  0.10394337  0.16283817  0.42434795     0.02970
C756        C  0.11319212  0.17142947  0.38401699    -0.11120
H757        H  0.19882937  0.11450516  0.37171838     0.08560
H758        H  0.11732367  0.12209813  0.47487183     0.06090
H759        H  0.09756895  0.19598150  0.36845694     0.05940
C760        C  0.10218204  0.36240722  0.59516989     0.02980
C761        C  0.08822932  0.40095559  0.61217442    -0.13170
C762        C  0.09667266  0.41277009  0.65516407     0.00480
C763        C  0.11524901  0.38502622  0.68010063    -0.11700
C764        C  0.13234975  0.35022192  0.66285065     0.02970
C765        C  0.12629911  0.33854609  0.62087839    -0.11120
H766        H  0.07058769  0.42079263  0.59262885     0.08560
H767        H  0.12119742  0.39319473  0.71304750     0.06090
H768        H  0.14032005  0.31102152  0.60863441     0.05940
C769        C  0.13011842  0.18956962  0.57180622     0.02980
C770        C  0.13736392  0.19723705  0.61413780    -0.13170
C771        C  0.17385499  0.18356280  0.63288469     0.00480
C772        C  0.19539800  0.15125064  0.61498985    -0.11700
C773        C  0.18869527  0.14116051  0.57283524     0.02970
C774        C  0.15765026  0.16301731  0.55054734    -0.11120
H775        H  0.12106608  0.22177073  0.62955364     0.08560
H776        H  0.22286352  0.14035462  0.63126370     0.06090
H777        H  0.15645588  0.16108101  0.51715656     0.05940
C778        C  0.61278167  0.18968847  0.09817286     0.02980
C779        C  0.65573195  0.18417075  0.09568407    -0.13170
C780        C  0.67602571  0.16250254  0.12707738     0.00480
C781        C  0.65339071  0.13153087  0.14643304    -0.11700
C782        C  0.61102730  0.13686041  0.15199154     0.02970
C783        C  0.59075896  0.16712476  0.12833712    -0.11120
H784        H  0.67410225  0.20544326  0.07782916     0.08560
H785        H  0.67000482  0.11177050  0.16729649     0.06090
H786        H  0.55847371  0.17332806  0.13362130     0.05940
C787        C  0.19737289  0.61391783  0.11249991     0.02980
C788        C  0.20633862  0.65572516  0.12096012    -0.13170
C789        C  0.19007906  0.67508264  0.15601799     0.00480
C790        C  0.15726290  0.65600026  0.17708743    -0.11700
C791        C  0.14597013  0.61444595  0.16820741     0.02970
C792        C  0.16858480  0.59300133  0.13777527    -0.11120
H793        H  0.23186186  0.67089716  0.10541765     0.08560
H794        H  0.14511662  0.67148760  0.20421475     0.06090
H795        H  0.16479274  0.55999364  0.13474665     0.05940
C796        C  0.38005533  0.37576950  0.11502820     0.02980
C797        C  0.36423492  0.41281987  0.10299761    -0.13170
C798        C  0.38727786  0.44006225  0.07924066     0.00480
C799        C  0.42856913  0.42822198  0.06776839    -0.11700
C800        C  0.44418229  0.38896540  0.07983932     0.02970
C801        C  0.41995704  0.36523519  0.10563725    -0.11120
H802        H  0.33238810  0.41917355  0.11054387     0.08560
H803        H  0.44651311  0.44739786  0.04756978     0.06090
H804        H  0.43045738  0.33571602  0.11572354     0.05940
C805        C  0.37543631  0.15146421  0.34444869     0.02980
C806        C  0.41266579  0.13913951  0.32841579    -0.13170
C807        C  0.43838690  0.11250879  0.34984615     0.00480
C808        C  0.42483251  0.09808323  0.38932887    -0.11700
C809        C  0.38578981  0.11098266  0.40537437     0.02970
C810        C  0.36314289  0.13899906  0.38279069    -0.11120
H811        H  0.42054024  0.14920662  0.29781277     0.08560
H812        H  0.44259764  0.07554256  0.40554132     0.06090
H813        H  0.33340081  0.14911166  0.39349025     0.05940
C814        C  0.12171409  0.36814260  0.32734881     0.02980
C815        C  0.11529948  0.35419357  0.36697927    -0.13170
C816        C  0.09893503  0.37995829  0.39808610     0.00480
C817        C  0.09114664  0.42196781  0.38884512    -0.11700
C818        C  0.09737634  0.43590802  0.34781684     0.02970
C819        C  0.11346113  0.40838983  0.31868083    -0.11120
H820        H  0.12256794  0.32264838  0.37318886     0.08560
H821        H  0.07723070  0.44192846  0.41165557     0.06090
H822        H  0.11862768  0.41767916  0.28724325     0.05940
C823        C  0.21792958  0.26851773  0.17120015     0.02130
C824        C  0.25914459  0.25577411  0.16530846     0.02130
C825        C  0.27740847  0.23017803  0.19397240     0.02130
C826        C  0.26163577  0.22621856  0.23280880     0.02130
C827        C  0.22355867  0.24266558  0.24104598     0.02130
C828        C  0.20233358  0.26591891  0.21172202     0.02130
C829        C  0.17264520  0.29554910  0.22907381    -0.00310
C830        C  0.13677540  0.28016545  0.24829607    -0.12180
C831        C  0.11931141  0.30296981  0.28060290     0.01930
C832        C  0.13779481  0.34187447  0.29358835    -0.00390
C833        C  0.17021889  0.35885677  0.27085876    -0.12120
C834        C  0.18624998  0.33703268  0.23773640     0.01810
H835        H  0.12465223  0.24898815  0.24044657     0.14790
H836        H  0.18330621  0.38966775  0.27908665     0.14800
C837        C  0.21526616  0.35939026  0.21297661     0.36450
C838        C  0.08310042  0.28563185  0.30006437     0.36350
N839        N  0.23669197  0.38030089  0.19378748    -0.43900
N840        N  0.05404205  0.27168728  0.31560386    -0.43890
C841        C  0.28687982  0.20734450  0.26566676    -0.00310
C842        C  0.28764037  0.16431792  0.26583295    -0.12180
C843        C  0.31641461  0.14568157  0.29175002     0.01930
C844        C  0.34473824  0.17051747  0.31761715    -0.00390
C845        C  0.34262465  0.21341208  0.31909868    -0.12120
C846        C  0.31369457  0.23210154  0.29328096     0.01810
H847        H  0.26676211  0.14551172  0.24466639     0.14790
H848        H  0.36403328  0.23215816  0.33980480     0.14800
C849        C  0.31375127  0.27663200  0.29398690     0.36450
C850        C  0.31688077  0.10114400  0.29101159     0.36350
N851        N  0.31441834  0.31234353  0.29446613    -0.43900
N852        N  0.31736227  0.06548867  0.29065458    -0.43890
C853        C  0.35168382  0.34390379  0.12978541    -0.00310
C854        C  0.34388433  0.30783094  0.10463111    -0.12180
C855        C  0.31409968  0.27807096  0.11529793     0.01930
C856        C  0.29029178  0.28574144  0.15039685    -0.00390
C857        C  0.30129305  0.31990901  0.17737413    -0.12120
C858        C  0.33135821  0.34938876  0.16711737     0.01810
H859        H  0.36069064  0.30327958  0.07631107     0.14790
H860        H  0.28740754  0.32245397  0.20742903     0.14800
C861        C  0.34197381  0.38401061  0.19579698     0.36450
C862        C  0.30835502  0.24064556  0.08954264     0.36350
N863        N  0.35063363  0.41170446  0.21876612    -0.43900
N864        N  0.30377221  0.21115640  0.06813313    -0.43890
C865        C  0.16532675  0.17627025  0.33307734    -0.00310
C866        C  0.18344042  0.21550977  0.34403247    -0.12180
C867        C  0.20113421  0.23924839  0.31412356     0.01930
C868        C  0.20056941  0.22300641  0.27310447    -0.00390
C869        C  0.18153781  0.18414319  0.26202084    -0.12120
C870        C  0.16393763  0.16039690  0.29204262     0.01810
H871        H  0.18365942  0.22740998  0.37608138     0.14790
H872        H  0.18169102  0.17204947  0.23007264     0.14800
C873        C  0.14498420  0.12019421  0.28039402     0.36450
C874        C  0.21872224  0.27985273  0.32620940     0.36350
N875        N  0.12981778  0.08795190  0.27108108    -0.43900
N876        N  0.23203196  0.31248662  0.33679872    -0.43890
C877        C  0.19951971  0.21506117  0.65582323    -0.00310
C878        C  0.20293978  0.21307481  0.69853312    -0.12180
C879        C  0.23066315  0.23990898  0.72108385     0.01930
C880        C  0.25520813  0.26973541  0.70037090    -0.00390
C881        C  0.25022897  0.27290253  0.65739211    -0.12120
C882        C  0.22259383  0.24552202  0.63475929     0.01810
H883        H  0.18506812  0.18940940  0.71402149     0.14790
H884        H  0.26885944  0.29574492  0.64165156     0.14800
C885        C  0.21965765  0.24831066  0.58999650     0.36450
C886        C  0.23487663  0.23308790  0.76484211     0.36350
N887        N  0.21750785  0.25072471  0.55415719    -0.43900
N888        N  0.23693448  0.22436232  0.79929456    -0.43890
C889        C  0.23548952  0.34357339  0.74203443    -0.00310
C890        C  0.19801933  0.32369038  0.75282633    -0.12180
C891        C  0.16444216  0.32055195  0.72428857     0.01930
C892        C  0.16856693  0.33881481  0.68578153    -0.00390
C893        C  0.20455904  0.36252473  0.67727861    -0.12120
C894        C  0.23727378  0.36691179  0.70635881     0.01810
H895        H  0.19681945  0.30580648  0.78046312     0.14790
H896        H  0.20597666  0.37948972  0.64885062     0.15640
C897        C  0.27480827  0.39021967  0.69637998     0.36450
C898        C  0.12645334  0.29824865  0.73452250     0.36350
N899        N  0.30490530  0.40872391  0.68829725    -0.43900
N900        N  0.09604140  0.28034401  0.74272660    -0.43890
C901        C  0.38482301  0.20428078  0.64138244    -0.00310
C902        C  0.40337290  0.24378770  0.64944939    -0.12180
C903        C  0.38380680  0.27192994  0.67528440     0.01930
C904        C  0.34610106  0.25961793  0.69325309    -0.00390
C905        C  0.32763776  0.22065349  0.68369361    -0.12120
C906        C  0.34570103  0.19331770  0.65768135     0.01810
H907        H  0.43367299  0.25173811  0.63737016     0.14790
H908        H  0.30027997  0.20963225  0.69893322     0.14800
C909        C  0.32470064  0.15284286  0.65286935     0.36450
C910        C  0.40363484  0.31220837  0.68461077     0.36350
N911        N  0.30665946  0.12107415  0.65020383    -0.43900
N912        N  0.41947104  0.34454348  0.69207046    -0.43890
C913        C  0.82721945  0.28708732  0.67253695    -0.00310
C914        C  0.85411765  0.25467412  0.67309232    -0.12180
C915        C  0.85160666  0.22580738  0.64092924     0.01930
C916        C  0.82453798  0.23190099  0.60587055    -0.00390
C917        C  0.80462526  0.26921778  0.60192777    -0.12120
C918        C  0.80656961  0.29771203  0.63533248     0.01810
H919        H  0.87104034  0.24754804  0.70173824     0.14790
H920        H  0.78766445  0.27569549  0.57317829     0.14800
C921        C  0.78276390  0.33433240  0.63310213     0.36450
C922        C  0.87665441  0.19004598  0.64569435     0.36350
N923        N  0.76355862  0.36365184  0.63129239    -0.43900
N924        N  0.89680403  0.16171517  0.65051938    -0.43890
C925        C  0.74871074  0.24439108  0.68046835    -0.00310
C926        C  0.71620597  0.26357367  0.65889170    -0.12180
C927        C  0.68480033  0.23977365  0.63673772     0.01930
C928        C  0.68661329  0.19676801  0.63622085    -0.00390
C929        C  0.72112370  0.17832855  0.65542528    -0.12120
C930        C  0.75230618  0.20168447  0.67680322     0.01810
H931        H  0.71313873  0.29658435  0.66286424     0.14790
H932        H  0.72297221  0.14519291  0.65579784     0.14800
C933        C  0.78503510  0.18070857  0.69865919     0.36450
C934        C  0.64989799  0.25957333  0.61754552     0.36350
N935        N  0.81111701  0.16371598  0.71604907    -0.43900
N936        N  0.62183607  0.27546720  0.60223782    -0.43890
C937        C  0.88940913  0.36720132  0.66419312    -0.00310
C938        C  0.85619504  0.38656425  0.68283578    -0.12180
C939        C  0.84368734  0.37563997  0.72181712     0.01930
C940        C  0.86072996  0.34088864  0.73980106    -0.00390
C941        C  0.89933579  0.32795755  0.72653758    -0.12120
C942        C  0.91352757  0.34033858  0.68812900     0.01810
H943        H  0.84000898  0.41039492  0.66673165     0.14790
H944        H  0.91426025  0.30303898  0.74205232     0.14800
C945        C  0.95192763  0.32425167  0.67365289     0.36450
C946        C  0.80785683  0.39506739  0.73824242     0.36350
N947        N  0.98271865  0.31138916  0.66207063    -0.43900
N948        N  0.77940171  0.41173310  0.75066382    -0.43890
C949        C  0.74713842  0.30305595  0.81541052    -0.00310
C950        C  0.72702521  0.33501217  0.79541378    -0.12180
C951        C  0.69632986  0.35609251  0.81448747     0.01930
C952        C  0.68597880  0.34568783  0.85455530    -0.00390
C953        C  0.70514642  0.31321971  0.87467176    -0.12120
C954        C  0.73589099  0.29151230  0.85502221     0.01810
H955        H  0.73521694  0.34287208  0.76421779     0.14790
H956        H  0.69722550  0.30610711  0.90615996     0.14800
C957        C  0.75587780  0.25856603  0.87584403     0.36450
C958        C  0.67641607  0.38866817  0.79283119     0.36350
N959        N  0.77203548  0.23219414  0.89254233    -0.43900
N960        N  0.66042589  0.41470350  0.77544569    -0.43890
C961        C  0.71494881  0.24178442  0.75839426    -0.00310
C962        C  0.68026204  0.26394225  0.74539915    -0.12180
C963        C  0.64053245  0.25093909  0.75541871     0.01930
C964        C  0.63623680  0.21530822  0.77786505    -0.00390
C965        C  0.67079150  0.19135870  0.78755286    -0.12120
C966        C  0.71030401  0.20471311  0.77837046     0.01810
H967        H  0.68456701  0.29293115  0.73021588     0.14790
H968        H  0.66740863  0.16405063  0.80576375     0.14800
C969        C  0.74554784  0.18205437  0.79303458     0.36450
C970        C  0.60545013  0.27573818  0.74533800     0.36350
N971        N  0.77360326  0.16396635  0.80521183    -0.43900
N972        N  0.57731889  0.29563012  0.73731569    -0.43890
C973        C  0.38894827  0.18287600  0.82791469    -0.00310
C974        C  0.41889648  0.21489676  0.82072816    -0.12180
C975        C  0.40817227  0.24744909  0.79629296     0.01930
C976        C  0.36763532  0.24701489  0.77860477    -0.00390
C977        C  0.34047814  0.21207128  0.78101948    -0.12120
C978        C  0.35065451  0.17998665  0.80570481     0.01810
H979        H  0.44980240  0.21545189  0.83597365     0.14790
H980        H  0.30952201  0.21163631  0.76707986     0.14800
C981        C  0.32015454  0.14655058  0.81049216     0.36450
C982        C  0.43745253  0.28204988  0.79237952     0.36350
N983        N  0.29567863  0.11978352  0.81420421    -0.43900
N984        N  0.46085625  0.30983442  0.78917317    -0.43890
C985        C  0.36980552  0.16571854  0.13564033    -0.00310
C986        C  0.38228404  0.19971084  0.16203190    -0.12180
C987        C  0.35334381  0.21944507  0.18525925     0.01930
C988        C  0.31128689  0.20505402  0.18103761    -0.00390
C989        C  0.29968654  0.16833211  0.15830200    -0.12120
C990        C  0.32910277  0.14812899  0.13563748     0.01810
H991        H  0.41468180  0.21130647  0.16364902     0.14790
H992        H  0.26721662  0.15707777  0.15624168     0.14800
C993        C  0.31655847  0.11127399  0.11090288     0.36450
C994        C  0.36758071  0.25552980  0.21038895     0.36350
N995        N  0.30648240  0.08168179  0.09112605    -0.43900
N996        N  0.38072390  0.28429544  0.22987874    -0.43890
C997        C  0.73651413  0.23636815  0.22616626    -0.00310
C998        C  0.75742121  0.20322018  0.20787303    -0.12180
C999        C  0.73886905  0.17870923  0.17510277     0.01930
C1000       C  0.69981063  0.18888186  0.15849364    -0.00390
C1001       C  0.67865609  0.22141013  0.17715425    -0.12120
C1002       C  0.69641624  0.24514971  0.21041373     0.01810
H1003       H  0.78959402  0.19824948  0.21725669     0.14790
H1004       H  0.64765892  0.22859093  0.16565870     0.14800
C1005       C  0.67356179  0.28016506  0.22380366     0.36450
C1006       C  0.76109777  0.14481026  0.15774968     0.36350
N1007       N  0.65290894  0.30755588  0.23164668    -0.43900
N1008       N  0.77891746  0.11760235  0.14387298    -0.43890
C1009       C  0.74890483  0.25145556  0.32667401    -0.00310
C1010       C  0.76237236  0.23039053  0.36131867    -0.12180
C1011       C  0.73352757  0.21398283  0.38770011     0.01930
C1012       C  0.68995391  0.21394314  0.37560658    -0.00390
C1013       C  0.67779100  0.24486769  0.34878628    -0.12120
C1014       C  0.70819635  0.26607453  0.32666359     0.01810
H1015       H  0.79485647  0.22339154  0.36603193     0.14790
H1016       H  0.64507638  0.25147441  0.34422693     0.14800
C1017       C  0.70065438  0.30716891  0.31381436     0.36450
C1018       C  0.75099613  0.19608804  0.42466751     0.36350
N1019       N  0.69535514  0.34108474  0.30587597    -0.43900
N1020       N  0.76611505  0.18253161  0.45417759    -0.43890
C1021       C  0.84067556  0.21441510  0.29086809    -0.00310
C1022       C  0.88394293  0.21472721  0.28343564    -0.12180
C1023       C  0.90613596  0.17887340  0.28776857     0.01930
C1024       C  0.88621860  0.14494032  0.30591791    -0.00390
C1025       C  0.84313554  0.13986511  0.29714082    -0.12120
C1026       C  0.81957838  0.17468450  0.29304041     0.01810
H1027       H  0.90108086  0.24297158  0.27644767     0.14790
H1028       H  0.82686586  0.11053958  0.30169135     0.14800
C1029       C  0.77479145  0.16689108  0.29294717     0.36450
C1030       C  0.95030133  0.17954107  0.28026899     0.36350
N1031       N  0.73915819  0.15895143  0.29269958    -0.43900
N1032       N  0.98572656  0.18019357  0.27436172    -0.43890
C1033       C  0.70850511  0.36380543  0.16159004    -0.00310
C1034       C  0.72511490  0.33010302  0.14052042    -0.12180
C1035       C  0.75521192  0.30727935  0.15964397     0.01930
C1036       C  0.76929947  0.31865500  0.20077834    -0.00390
C1037       C  0.75289290  0.35311129  0.22133407    -0.12120
C1038       C  0.72326997  0.37636658  0.20166102     0.01810
H1039       H  0.71432350  0.32165402  0.10871900     0.14790
H1040       H  0.76013840  0.35971381  0.25405065     0.14800
C1041       C  0.70704006  0.41148667  0.22355436     0.36450
C1042       C  0.76817506  0.27128514  0.13676149     0.36350
N1043       N  0.69403748  0.43965171  0.24107880    -0.43900
N1044       N  0.77810132  0.24303417  0.11705813    -0.43890
C1045       C  0.73397672  0.80561667  0.20805300    -0.00310
C1046       C  0.69314225  0.79609861  0.19352657    -0.12180
C1047       C  0.67170835  0.82421492  0.17118286     0.01930
C1048       C  0.69226501  0.86206349  0.16157159    -0.00390
C1049       C  0.73461859  0.86978796  0.17223097    -0.12120
C1050       C  0.75583856  0.84148967  0.19570707     0.01810
H1051       H  0.67644518  0.76873874  0.20369086     0.14790
H1052       H  0.75025548  0.89850988  0.16408732     0.14800
C1053       C  0.79881716  0.85116496  0.20916043     0.36450
C1054       C  0.62760361  0.81459011  0.16242079     0.36350
N1055       N  0.83329778  0.85945466  0.21952165    -0.43900
N1056       N  0.59239101  0.80599416  0.15604781    -0.43890
C1057       C  0.73965269  0.71537040  0.21411668    -0.00310
C1058       C  0.70782756  0.69114221  0.23159315    -0.12180
C1059       C  0.67950927  0.66726213  0.20627339     0.01930
C1060       C  0.68372555  0.66742373  0.16333327    -0.00390
C1061       C  0.71763609  0.68968728  0.14640460    -0.12120
C1062       C  0.74563669  0.71359298  0.17150783     0.01810
H1063       H  0.70411412  0.69249866  0.26498416     0.14790
H1064       H  0.72144399  0.69032212  0.11326628     0.14800
C1065       C  0.77842866  0.73762258  0.15274434     0.36450
C1066       C  0.64564230  0.64461254  0.22459344     0.36350
N1067       N  0.80453295  0.75680462  0.13746673    -0.43900
N1068       N  0.61848702  0.62655445  0.23943350    -0.43890
C1069       C  0.80062406  0.72822098  0.34990119    -0.00310
C1070       C  0.84262201  0.74161689  0.35270348    -0.12180
C1071       C  0.87302283  0.71269292  0.35475264     0.01930
C1072       C  0.86135224  0.67086549  0.36122960    -0.00390
C1073       C  0.81948060  0.65917478  0.36666359    -0.12120
C1074       C  0.78875571  0.68780406  0.36053556     0.01810
H1075       H  0.85153606  0.77283756  0.34470067     0.14790
H1076       H  0.81085231  0.62771157  0.37409484     0.14800
C1077       C  0.74522126  0.67412950  0.35933984     0.36450
C1078       C  0.91572254  0.72612994  0.34737640     0.36350
N1079       N  0.71020514  0.66350776  0.35802651    -0.43900
N1080       N  0.94974468  0.73686059  0.34105916    -0.43890
C1081       C  0.70706857  0.82885953  0.28821035    -0.00310
C1082       C  0.71961860  0.87039518  0.29216468    -0.12180
C1083       C  0.69521228  0.89693063  0.31385189     0.01930
C1084       C  0.65861458  0.88064413  0.33162184    -0.00390
C1085       C  0.64298708  0.84073858  0.32145796    -0.12120
C1086       C  0.66704526  0.81456852  0.29891575     0.01810
H1087       H  0.74996511  0.88106702  0.28200291     0.14790
H1088       H  0.61324910  0.82968775  0.33272854     0.14800
C1089       C  0.65167467  0.77253875  0.29005928     0.36450
C1090       C  0.70928513  0.93989704  0.31911667     0.36350
N1091       N  0.63862958  0.73912420  0.28273813    -0.43900
N1092       N  0.72068806  0.97422009  0.32325881    -0.43890
C1093       C  0.83957947  0.66582076  0.19328555    -0.00310
C1094       C  0.85840334  0.70366221  0.20746080    -0.12180
C1095       C  0.84834614  0.72083261  0.24524643     0.01930
C1096       C  0.81539593  0.70203681  0.26629285    -0.00390
C1097       C  0.80165155  0.66134104  0.25610052    -0.12120
C1098       C  0.81252192  0.64342211  0.21850082     0.01810
H1099       H  0.88222296  0.71882285  0.18956188     0.14790
H1100       H  0.77704501  0.64675845  0.27336079     0.14800
C1101       C  0.79502076  0.60279631  0.20603041     0.36450
C1102       C  0.86614638  0.76141646  0.25737811     0.36350
N1103       N  0.78069610  0.57032509  0.19624099    -0.43900
N1104       N  0.88093504  0.79380081  0.26673048    -0.43890
C1105       C  0.86377182  0.31409255  0.21303009    -0.00310
C1106       C  0.85896434  0.30204300  0.17061307    -0.12180
C1107       C  0.87281734  0.32799378  0.13981384     0.01930
C1108       C  0.89446012  0.36536476  0.15198817    -0.00390
C1109       C  0.90696985  0.37230895  0.19457476    -0.12120
C1110       C  0.89417945  0.34527743  0.22453946     0.01810
H1111       H  0.84310163  0.27285843  0.16192163     0.14790
H1112       H  0.92639754  0.39920888  0.20503269     0.14800
C1113       C  0.91576030  0.34783831  0.26486271     0.36450
C1114       C  0.86443246  0.31573814  0.09655691     0.36350
N1115       N  0.93402893  0.34904015  0.29672802    -0.43900
N1116       N  0.85762368  0.30584492  0.06188403    -0.43890
C1117       C  0.19282629  0.28717864  0.13708542    -0.00310
C1118       C  0.14959523  0.29136148  0.14098911    -0.12180
C1119       C  0.13135835  0.32774461  0.12914200     0.01930
C1120       C  0.15726378  0.35964824  0.11387245    -0.00390
C1121       C  0.19825559  0.35081215  0.10352524    -0.12120
C1122       C  0.21266654  0.31210437  0.10873492     0.01810
H1123       H  0.13141365  0.26870061  0.15736103     0.14790
H1124       H  0.21882597  0.37273882  0.08893819     0.14800
C1125       C  0.23131692  0.29437764  0.07266572     0.36450
C1126       C  0.08715189  0.33180242  0.13418487     0.36350
N1127       N  0.24446256  0.28208376  0.04180969    -0.43900
N1128       N  0.05165792  0.33486621  0.13818910    -0.43890
C1129       C  0.21953217  0.70291077  0.18021996    -0.00310
C1130       C  0.24671405  0.68454143  0.20860394    -0.12180
C1131       C  0.27773632  0.70802575  0.23115563     0.01930
C1132       C  0.28123346  0.75084116  0.22577788    -0.00390
C1133       C  0.25536025  0.76882830  0.19579461    -0.12120
C1134       C  0.22457505  0.74502243  0.17274231     0.01810
H1135       H  0.24352889  0.65157531  0.21308658     0.14790
H1136       H  0.25787189  0.80189494  0.19207643     0.14800
C1137       C  0.19778185  0.76435313  0.14281291     0.36450
C1138       C  0.30386366  0.68780694  0.26105393     0.36350
N1139       N  0.17621394  0.77979097  0.11881275    -0.43900
N1140       N  0.32437311  0.67132515  0.28518486    -0.43890
C1141       C  0.36941062  0.76374842  0.22245983    -0.00310
C1142       C  0.39076272  0.73164050  0.24066888    -0.12180
C1143       C  0.40035032  0.69716575  0.21662874     0.01930
C1144       C  0.38719012  0.69473322  0.17461517    -0.00390
C1145       C  0.36640414  0.72730751  0.15644369    -0.12120
C1146       C  0.35939029  0.76271297  0.17958695     0.01810
H1147       H  0.39774904  0.73262036  0.27402269     0.14790
H1148       H  0.35784495  0.72580792  0.12335671     0.14800
C1149       C  0.33956716  0.79620003  0.15930279     0.36450
C1150       C  0.42228444  0.66431821  0.23553348     0.36350
N1151       N  0.32336613  0.82255570  0.14259624    -0.43900
N1152       N  0.43968163  0.63781404  0.25067352    -0.43890
C1153       C  0.40059632  0.87884126  0.17531280    -0.00310
C1154       C  0.42936869  0.85067385  0.19009938    -0.12180
C1155       C  0.42760421  0.83646933  0.23046688     0.01930
C1156       C  0.39568399  0.84953390  0.25633218    -0.00390
C1157       C  0.37489673  0.88477166  0.24537956    -0.12120
C1158       C  0.37443201  0.89754477  0.20428373     0.01810
H1159       H  0.45310871  0.83937627  0.17001789     0.14790
H1160       H  0.35480318  0.89868338  0.26750040     0.14800
C1161       C  0.34550649  0.92834056  0.19215773     0.36450
C1162       C  0.45696400  0.80649354  0.24339506     0.36350
N1163       N  0.32259800  0.95315581  0.18223183    -0.43900
N1164       N  0.48079294  0.78264279  0.25362047    -0.43890
C1165       C  0.24902433  0.77134046  0.30197342    -0.00310
C1166       C  0.25547352  0.73724769  0.32624728    -0.12180
C1167       C  0.22393909  0.70754150  0.32916520     0.01930
C1168       C  0.18507518  0.71331908  0.30904700    -0.00390
C1169       C  0.17808196  0.74770057  0.28545396    -0.12120
C1170       C  0.20988203  0.77733035  0.28205461     0.01810
H1171       H  0.28596534  0.73297513  0.34113783     0.14790
H1172       H  0.14708512  0.75245049  0.27199301     0.14800
C1173       C  0.20134983  0.81279482  0.25793588     0.36450
C1174       C  0.23124866  0.67263765  0.35474824     0.36350
N1175       N  0.19331324  0.84057227  0.23803013    -0.43900
N1176       N  0.23701224  0.64469203  0.37519871    -0.43890
C1177       C  0.19661448  0.38674186  0.84491137    -0.00310
C1178       C  0.20563838  0.34808464  0.85924472    -0.12180
C1179       C  0.24296823  0.33032261  0.84973603     0.01930
C1180       C  0.27166689  0.35151559  0.82482308    -0.00390
C1181       C  0.26563796  0.39306892  0.81686613    -0.12120
C1182       C  0.22779222  0.41042801  0.82553755     0.01810
H1183       H  0.18324610  0.33174475  0.87781718     0.14790
H1184       H  0.28777201  0.40983991  0.79838459     0.14800
C1185       C  0.22135235  0.45229005  0.81368789     0.36450
C1186       C  0.24898959  0.28988244  0.86498682     0.36350
N1187       N  0.21608121  0.48577471  0.80418607    -0.43900
N1188       N  0.25163107  0.25794082  0.87946189    -0.43890
C1189       C  0.20059757  0.70196285  0.84410275    -0.00310
C1190       C  0.20280417  0.74347923  0.85787662    -0.12180
C1191       C  0.23337532  0.77047366  0.84278622     0.01930
C1192       C  0.26256064  0.75504620  0.81510643    -0.00390
C1193       C  0.26141459  0.71301996  0.80392078    -0.12120
C1194       C  0.23037935  0.68672616  0.81706688     0.01810
H1195       H  0.18069547  0.75462912  0.87984653     0.14790
H1196       H  0.28256177  0.70108632  0.78161768     0.14800
C1197       C  0.23000449  0.64400790  0.80215996     0.36450
C1198       C  0.23354879  0.81381590  0.85464239     0.36350
N1199       N  0.22999013  0.60995188  0.79004113    -0.43900
N1200       N  0.23362424  0.84862161  0.86398337    -0.43890
C1201       C  0.15479466  0.73917351  0.70946300    -0.00310
C1202       C  0.19362521  0.72339716  0.70301744    -0.12180
C1203       C  0.22860799  0.74422522  0.71834990     0.01930
C1204       C  0.22487376  0.78065088  0.74293205    -0.00390
C1205       C  0.18577792  0.79626135  0.75094767    -0.12120
C1206       C  0.14997406  0.77565171  0.73317373     0.01810
H1207       H  0.19662404  0.69564031  0.68341019     0.14790
H1208       H  0.18360612  0.82464997  0.76947542     0.14800
C1209       C  0.10942536  0.79229159  0.73839447     0.36450
C1210       C  0.26765951  0.72788049  0.70622030     0.36350
N1211       N  0.07678663  0.80551706  0.74237351    -0.43900
N1212       N  0.29767597  0.71330320  0.69504842    -0.43890
C1213       C  0.39149214  0.81133446  0.75730313    -0.00310
C1214       C  0.42622686  0.78803752  0.74855118    -0.12180
C1215       C  0.46565099  0.80023789  0.76631990     0.01930
C1216       C  0.46979605  0.83654537  0.79155990    -0.00390
C1217       C  0.43464425  0.86026884  0.79789819    -0.12120
C1218       C  0.39619848  0.84849629  0.78085836     0.01810
H1219       H  0.42245065  0.75987717  0.72955148     0.14790
H1220       H  0.43572632  0.88708629  0.81866502     0.14800
C1221       C  0.36129690  0.87337507  0.79157375     0.36450
C1222       C  0.50031018  0.77406313  0.76066714     0.36350
N1223       N  0.33355257  0.89321762  0.80030721    -0.43900
N1224       N  0.52783530  0.75260323  0.75638304    -0.43890
C1225       C  0.38318425  0.87775380  0.62292837    -0.00310
C1226       C  0.38720814  0.83540383  0.62448363    -0.12180
C1227       C  0.36762050  0.81387703  0.65523740     0.01930
C1228       C  0.34534943  0.83581247  0.68533672    -0.00390
C1229       C  0.34252168  0.87837393  0.68393905    -0.12120
C1230       C  0.35922325  0.89924315  0.65194770     0.01810
H1231       H  0.40589900  0.81949003  0.60208982     0.14790
H1232       H  0.32675809  0.89542961  0.70786963     0.14800
C1233       C  0.35217462  0.94293860  0.65085552     0.36450
C1234       C  0.37064163  0.76975202  0.65409816     0.36350
N1235       N  0.34569342  0.97774689  0.65068713    -0.43900
N1236       N  0.37405688  0.73448114  0.65069008    -0.43890
C1237       C  0.35203998  0.75296975  0.81075113    -0.00310
C1238       C  0.34772582  0.76262525  0.85311954    -0.12180
C1239       C  0.34740273  0.73132413  0.88100580     0.01930
C1240       C  0.35564604  0.69109569  0.86656681    -0.00390
C1241       C  0.36263534  0.68211719  0.82511737    -0.12120
C1242       C  0.36247985  0.71301990  0.79720760     0.01810
H1243       H  0.33940244  0.79339451  0.86325848     0.14790
H1244       H  0.37147993  0.65139199  0.81524832     0.14800
C1245       C  0.37101401  0.70102740  0.75506939     0.36450
C1246       C  0.33952935  0.74098338  0.92419419     0.36350
N1247       N  0.37938532  0.68824765  0.72256466    -0.43900
N1248       N  0.33290721  0.74902219  0.95861703    -0.43890
C1249       C  0.18917875  0.88281980  0.66114174    -0.00310
C1250       C  0.20815559  0.84910067  0.64224085    -0.12180
C1251       C  0.24231623  0.83210838  0.66110306     0.01930
C1252       C  0.25667448  0.84773172  0.70067113    -0.00390
C1253       C  0.23782466  0.88142728  0.71984260    -0.12120
C1254       C  0.20432640  0.89951108  0.69993443     0.01810
H1255       H  0.19763681  0.83751121  0.61125443     0.14790
H1256       H  0.24859365  0.89259750  0.75085878     0.14800
C1257       C  0.18601105  0.93480625  0.71939817     0.36450
C1258       C  0.26092441  0.79830129  0.63927862     0.36350
N1259       N  0.17124129  0.96310056  0.73495623    -0.43900
N1260       N  0.27508901  0.77149458  0.62062307    -0.43890
C1261       C  0.19637756  0.87196599  0.35592179    -0.00310
C1262       C  0.21968755  0.89023130  0.32537091    -0.12180
C1263       C  0.25984404  0.87818114  0.31745473     0.01930
C1264       C  0.27884239  0.84761613  0.34145171    -0.00390
C1265       C  0.25496097  0.82984287  0.37248693    -0.12120
C1266       C  0.21486459  0.84207832  0.38058227     0.01810
H1267       H  0.20540082  0.91312706  0.30624931     0.14790
H1268       H  0.26479609  0.80171444  0.38607114     0.14800
C1269       C  0.19363523  0.82282635  0.41410716     0.36450
C1270       C  0.27386999  0.88941089  0.27746073     0.36350
N1271       N  0.17677036  0.80732294  0.44097970    -0.43900
N1272       N  0.28003426  0.89776573  0.24362143    -0.43890
C1273       C  0.89206675  0.37378689  0.86731367    -0.00310
C1274       C  0.90356639  0.33287863  0.86169427    -0.12180
C1275       C  0.87680125  0.30482206  0.83837463     0.01930
C1276       C  0.83818831  0.31810804  0.82270330    -0.00390
C1277       C  0.82547406  0.35734512  0.83238295    -0.12120
C1278       C  0.85245093  0.38592197  0.85203260     0.01810
H1279       H  0.93415951  0.32389087  0.87279011     0.14790
H1280       H  0.79695459  0.36812828  0.81858594     0.14800
C1281       C  0.83996261  0.42805702  0.84896844     0.36450
C1282       C  0.89044030  0.26399953  0.82815172     0.36350
N1283       N  0.82809840  0.46084989  0.84442315    -0.43900
N1284       N  0.90129107  0.23125389  0.81983559    -0.43890
C1285       C  0.81358878  0.83532697  0.42475679    -0.00310
C1286       C  0.77708115  0.81127452  0.43084199    -0.12180
C1287       C  0.75172331  0.79723285  0.39633377     0.01930
C1288       C  0.76337242  0.80800791  0.35651399    -0.00390
C1289       C  0.79592442  0.83684093  0.35138469    -0.12120
C1290       C  0.82193638  0.84966550  0.38464103     0.01810
H1291       H  0.76941436  0.80246091  0.46189059     0.14790
H1292       H  0.80470740  0.84479790  0.32028833     0.14800
C1293       C  0.85839531  0.87484054  0.37498821     0.36450
C1294       C  0.71496534  0.77104809  0.40154842     0.36350
N1295       N  0.88710706  0.89458582  0.36528960    -0.43900
N1296       N  0.68500514  0.75049283  0.40521646    -0.43890
C1297       C  0.44141801  0.88155748  0.40558324    -0.00310
C1298       C  0.40859480  0.86059755  0.42427845    -0.12180
C1299       C  0.37590346  0.84342322  0.39753031     0.01930
C1300       C  0.38378016  0.83731876  0.35403518    -0.00390
C1301       C  0.42717090  0.83692382  0.34584053    -0.12120
C1302       C  0.45673366  0.85718594  0.37346931     0.01810
H1303       H  0.40364216  0.86667883  0.45709901     0.14790
H1304       H  0.43833990  0.82112006  0.31889877     0.14800
C1305       C  0.50075622  0.85637086  0.36636301     0.36450
C1306       C  0.33940795  0.83040676  0.41864554     0.36350
N1307       N  0.53608292  0.85509043  0.36059003    -0.43900
N1308       N  0.31395132  0.82152887  0.44163365    -0.43890
C1309       C  0.83886970  0.32825381  0.31431353    -0.00310
C1310       C  0.83173800  0.36804769  0.29932774    -0.12180
C1311       C  0.83459524  0.40276933  0.32653219     0.01930
C1312       C  0.85123017  0.39821163  0.36706274    -0.00390
C1313       C  0.83894375  0.36049943  0.38395582    -0.12120
C1314       C  0.84151901  0.32483123  0.35836407     0.01810
H1315       H  0.82671177  0.37299389  0.26656867     0.14790
H1316       H  0.84069501  0.35772308  0.41745656     0.14800
C1317       C  0.85377131  0.28776503  0.37819905     0.36450
C1318       C  0.82430188  0.44261255  0.31167056     0.36350
N1319       N  0.86482282  0.25878673  0.39462446    -0.43900
N1320       N  0.81594366  0.47451931  0.29964565    -0.43890
C1321       C  0.34591804  0.33332617  0.92461282    -0.00310
C1322       C  0.35887778  0.36265565  0.89562033    -0.12180
C1323       C  0.36424521  0.35149233  0.85465840     0.01930
C1324       C  0.35105214  0.31183639  0.84062935    -0.00390
C1325       C  0.34332153  0.28098220  0.86906277    -0.12120
C1326       C  0.34168655  0.29144256  0.91143423     0.01810
H1327       H  0.36505936  0.39478278  0.90392753     0.14790
H1328       H  0.33388538  0.24992805  0.85807592     0.14800
C1329       C  0.33286941  0.25939001  0.94014941     0.36450
C1330       C  0.37714124  0.38270287  0.82620567     0.36350
N1331       N  0.32593197  0.23360461  0.96309831    -0.43900
N1332       N  0.38731831  0.40754735  0.80333868    -0.43890
C1333       C  0.80361060  0.81113095  0.67377391    -0.00310
C1334       C  0.83430508  0.83663682  0.69538295    -0.12180
C1335       C  0.86078550  0.86171671  0.67386206     0.01930
C1336       C  0.85601742  0.86093300  0.63048193    -0.00390
C1337       C  0.82520272  0.83572166  0.60864567    -0.12120
C1338       C  0.79868592  0.81039132  0.63033906     0.01810
H1339       H  0.83748146  0.83662359  0.72913996     0.14790
H1340       H  0.82223944  0.83580676  0.57489358     0.14800
C1341       C  0.76748356  0.78368970  0.60794921     0.36450
C1342       C  0.89248861  0.88774683  0.69650087     0.36350
N1343       N  0.74240619  0.76220245  0.59017887    -0.43900
N1344       N  0.91794222  0.90862569  0.71447876    -0.43890
C1345       C  0.81249411  0.71480915  0.78051822    -0.00310
C1346       C  0.81602189  0.67280892  0.77150199    -0.12180
C1347       C  0.84331005  0.65074474  0.79549165     0.01930
C1348       C  0.86651898  0.67127010  0.82890909    -0.00390
C1349       C  0.86279400  0.71310895  0.83814518    -0.12120
C1350       C  0.83596819  0.73532257  0.81385951     0.01810
H1351       H  0.79770981  0.65758957  0.74572058     0.14790
H1352       H  0.88092588  0.72822243  0.86412945     0.14800
C1353       C  0.83415054  0.77911653  0.82309917     0.36450
C1354       C  0.84670669  0.60717674  0.78579976     0.36350
N1355       N  0.83375613  0.81416575  0.83109347    -0.43900
N1356       N  0.84964305  0.57231331  0.77810669    -0.43890
C1357       C  0.70655584  0.81001863  0.77868426    -0.00310
C1358       C  0.73136325  0.83920571  0.80294840    -0.12180
C1359       C  0.71312232  0.86581257  0.83040934     0.01930
C1360       C  0.66978470  0.86244603  0.83334892    -0.00390
C1361       C  0.64481020  0.83299685  0.80944752    -0.12120
C1362       C  0.66324125  0.80644835  0.78179662     0.01810
H1363       H  0.76491191  0.84129551  0.79987099     0.14790
H1364       H  0.61112120  0.83115313  0.81232525     0.14800
C1365       C  0.63790515  0.77605075  0.75704879     0.36450
C1366       C  0.73897236  0.89608438  0.85500782     0.36350
N1367       N  0.61828243  0.75139458  0.73685856    -0.43900
N1368       N  0.75959584  0.92035807  0.87473676    -0.43890
C1369       C  0.67099564  0.87684792  0.64324870    -0.00310
C1370       C  0.70314552  0.89448582  0.66998430    -0.12180
C1371       C  0.72654466  0.86993901  0.69504987     0.01930
C1372       C  0.71786383  0.82717956  0.69242749    -0.00390
C1373       C  0.68506842  0.80955403  0.66646474    -0.12120
C1374       C  0.66113239  0.83442839  0.64180593     0.01810
H1375       H  0.70952120  0.92768483  0.67141676     0.14790
H1376       H  0.67861943  0.77639982  0.66530355     0.14800
C1377       C  0.62704820  0.81620405  0.61556480     0.36450
C1378       C  0.75854650  0.88944210  0.72310844     0.36350
N1379       N  0.59963416  0.80155130  0.59463111    -0.43900
N1380       N  0.78390791  0.90573137  0.74547217    -0.43890
C1381       C  0.82661053  0.72923044  0.69333572    -0.00310
C1382       C  0.80742323  0.70139273  0.66325108    -0.12180
C1383       C  0.83161311  0.67698991  0.63874178     0.01930
C1384       C  0.87497788  0.68086185  0.64507136    -0.00390
C1385       C  0.89419580  0.70882090  0.67508582    -0.12120
C1386       C  0.87011670  0.73333897  0.69946711     0.01810
H1387       H  0.77358356  0.69889517  0.65910879     0.14790
H1388       H  0.92806553  0.71138995  0.67917321     0.14800
C1389       C  0.89053260  0.76225889  0.72989248     0.36450
C1390       C  0.81173417  0.64852476  0.60764678     0.36350
N1391       N  0.90731293  0.78539926  0.75403486    -0.43900
N1392       N  0.79577020  0.62572858  0.58269413    -0.43890
C1393       C  0.67596297  0.68062954  0.84752345    -0.00310
C1394       C  0.67517905  0.66948267  0.80530741    -0.12180
C1395       C  0.70003412  0.69189878  0.77939201     0.01930
C1396       C  0.72539388  0.72537829  0.79652110    -0.00390
C1397       C  0.72699353  0.73592451  0.83884205    -0.12120
C1398       C  0.70240238  0.71351793  0.86480061     0.01810
H1399       H  0.65533753  0.64354675  0.79289561     0.14790
H1400       H  0.74695333  0.76178378  0.85125032     0.14800
C1401       C  0.70518211  0.72432123  0.90897129     0.36450
C1402       C  0.69867886  0.68079289  0.73536635     0.36350
N1403       N  0.70732494  0.73286495  0.94430703    -0.43900
N1404       N  0.69780162  0.67218122  0.70007154    -0.43890
loop_ 
_geom_bond_atom_site_label_1 
_geom_bond_atom_site_label_2 
_geom_bond_distance 
_geom_bond_site_symmetry_2 
_ccdc_geom_bond_type 
C1            C2   1.384       .  A
C1            C6   1.441       .  A
C1          C421   1.511       .  S
C2            C3   1.390       .  A
C2            H7   1.085       .  S
C3            C4   1.390       .  A
C3         C1393   1.431       .  S
C4            C5   1.383       .  A
C4            H8   1.086       .  S
C5            C6   1.442       .  A
C5          C378   1.508       .  S
C6            H9   1.080       .  S
C10          C11   1.392       .  A
C10          C15   1.391       .  A
C10        C1384   1.427       .  S
C11          C12   1.384       .  A
C11          H16   1.085       .  S
C12          C13   1.439       .  A
C12         C142   1.510       .  S
C13          C14   1.440       .  A
C13          H17   1.077   1_655  S
C14          C15   1.382       .  A
C14         C185   1.506       .  S
C15          H18   1.086       .  S
C19          C20   1.385       .  A
C19          C24   1.438       .  A
C19         C596   1.508       .  S
C20          C21   1.392       .  A
C20          H25   1.086       .  S
C21          C22   1.394       .  A
C21        C1369   1.435       .  S
C22          C23   1.387       .  A
C22          H26   1.085       .  S
C23          C24   1.438       .  A
C23         C639   1.509       .  S
C24          H27   1.080   1_565  S
C28          C29   1.377       .  A
C28          C33   1.377       .  A
C28        C1357   1.438       .  S
C29          C30   1.372       .  A
C29        C1396   1.435       .  S
C30          C31   1.375       .  A
C30        C1345   1.446       .  S
C31          C32   1.380       .  A
C31        C1381   1.436       .  S
C32          C33   1.379       .  A
C32        C1333   1.439       .  S
C33        C1372   1.444       .  S
C34          C35   1.447       .  A
C34          C39   1.401       .  A
C34         C521   1.510       .  S
C35          C36   1.452       .  A
C35          H40   1.082       .  S
C36          C37   1.413       .  A
C36         C293   1.510       .  S
C37          C38   1.388       .  A
C37          H41   1.083       .  S
C38          C39   1.377       .  A
C38        C1321   1.481       .  S
C39          H42   1.084       .  S
C43          C44   1.415       .  A
C43          C48   1.413       .  A
C43        C1312   1.512       .  S
C44          C45   1.401       .  A
C44          H49   1.078       .  S
C45          C46   1.424       .  A
C45         C303   1.504       .  S
C46          C47   1.422       .  A
C46          H50   1.069   1_655  S
C47          C48   1.388       .  A
C47         C749   1.500       .  S
C48          H51   1.080       .  S
C52          C53   1.406       .  A
C52          C57   1.405       .  A
C52        C1297   1.506       .  S
C53          C54   1.400       .  A
C53          H58   1.082       .  S
C54          C55   1.436       .  A
C54         C511   1.504       .  S
C55          C56   1.434       .  A
C55          H59   1.082   1_565  S
C56          C57   1.391       .  A
C56         C701   1.502       .  S
C57          H60   1.084       .  S
C61          C62   1.387       .  A
C61          C66   1.374       .  A
C61        C1285   1.453       .  S
C62          C63   1.405       .  A
C62          H67   1.084       .  S
C63          C64   1.456       .  A
C63         C143   1.530       .  S
C64          C65   1.456       .  A
C64          H68   1.082       .  S
C65          C66   1.394       .  A
C65         C640   1.524       .  S
C66          H69   1.085       .  S
C70          C71   1.388       .  A
C70          C75   1.446       .  A
C70         C140   1.505       .  S
C71          C72   1.373       .  A
C71          H76   1.086       .  S
C72          C73   1.372       .  A
C72        C1336   1.425       .  S
C73          C74   1.386       .  A
C73          H77   1.086       .  S
C74          C75   1.446       .  A
C74         C642   1.504       .  S
C75          H78   1.081       .  S
C79          C80   1.398       .  A
C79          C84   1.390       .  A
C79        C1273   1.448       .  S
C80          C81   1.394       .  A
C80          H85   1.085       .  S
C81          C82   1.435       .  A
C81         C186   1.506       .  S
C82          C83   1.439       .  A
C82          H86   1.071       .  S
C83          C84   1.388       .  A
C83         C379   1.502       .  S
C84          H87   1.086       .  S
C88          C89   1.387       .  A
C88          C93   1.448       .  A
C88         C188   1.513       .  S
C89          C90   1.378       .  A
C89          H94   1.086       .  S
C90          C91   1.380       .  A
C90        C1348   1.434       .  S
C91          C92   1.389       .  A
C91          H95   1.086       .  S
C92          C93   1.450       .  A
C92         C376   1.517       .  S
C93          H96   1.082       .  S
C97          C98   1.400       .  A
C97         C102   1.451       .  A
C97         C124   1.516       .  S
C98          C99   1.404       .  A
C98         H103   1.084       .  S
C99         C100   1.390       .  A
C99        C1261   1.471       .  S
C100        C101   1.384       .  A
C100        H104   1.084       .  S
C101        C102   1.437       .  A
C101        C703   1.521       .  S
C102        H105   1.082       .  S
C106        C107   1.442       .  A
C106        C111   1.393       .  A
C106        C126   1.503       .  S
C107        C108   1.434       .  A
C107        H112   1.080       .  S
C108        C109   1.392       .  A
C108        C719   1.508       .  S
C109        C110   1.393       .  A
C109        H113   1.086       .  S
C110        C111   1.394       .  A
C110       C1249   1.447       .  S
C111        H114   1.084       .  S
O115        C123   1.257       .  A
O115       Co135   1.980       .  S
O116        C124   1.297       .  A
O116       Co136   2.116       .  S
O117        C125   1.268       .  A
O117       Co137   1.964       .  S
O118        C126   1.257       .  A
O118       Co138   1.952       .  S
O119        C125   1.272       .  A
O119       Co136   2.018       .  S
O120        C126   1.294       .  A
O120       Co135   2.120       .  S
O121        C124   1.270       .  A
O121       Co138   1.990       .  S
O122        C123   1.264       .  A
O122       Co137   1.983       .  S
C123        C170   1.482       .  S
C125        C246   1.480       .  S
O127        C140   1.304       .  A
O127       Co135   2.095   1_655  S
O128        C141   1.277       .  A
O128       Co136   2.014   1_655  S
O129        C142   1.267   1_455  A
O129       Co137   2.014       .  S
O130        C143   1.251       .  A
O130       Co138   2.032   1_655  S
O131        C143   1.267       .  A
O131       Co136   2.023   1_655  S
O132        C142   1.290       .  A
O132       Co135   2.024   1_655  S
O133        C140   1.265   1_455  A
O133       Co138   1.955       .  S
O134        C141   1.257   1_455  A
O134       Co137   2.009       .  S
Co135       O139   2.159       .  S
Co136       O139   2.086       .  S
Co137       O139   2.167       .  S
Co138       O139   2.027       .  S
C141        C391   1.502       .  S
C144        C145   1.384       .  A
C144        C149   1.450       .  A
C144        C274   1.482       .  S
C145        C146   1.374       .  A
C145        H150   1.086       .  S
C146        C147   1.377       .  A
C146       C1240   1.417       .  S
C147        C148   1.376       .  A
C147        H151   1.086       .  S
C148        C149   1.436       .  A
C148        C423   1.507       .  S
C149        H152   1.082       .  S
C153        C154   1.387       .  A
C153        C158   1.450       .  A
C153        C720   1.517       .  S
C154        C155   1.392       .  A
C154        H159   1.085       .  S
C155        C156   1.397       .  A
C155       C1225   1.438       .  S
C156        C157   1.387       .  A
C156        H160   1.086       .  S
C157        C158   1.442       .  A
C157        C595   1.525       .  S
C158        H161   1.077   1_565  S
C162        C163   1.383       .  A
C162        C167   1.403       .  A
C162       C1192   1.482       .  S
C163        C164   1.382       .  A
C163       C1204   1.446       .  S
C164        C165   1.398       .  A
C164       C1252   1.460       .  S
C165        C166   1.392       .  A
C165       C1228   1.456       .  S
C166        C167   1.396       .  A
C166       C1213   1.452       .  S
C167       C1237   1.448       .  S
C168        C169   1.382       .  A
C168        C173   1.379       .  A
C168       C1201   1.415       .  S
C169        C170   1.385       .  A
C169        H174   1.087       .  S
C170        C171   1.439       .  A
C171        C172   1.437       .  A
C171        H175   1.080       .  S
C172        C173   1.381       .  A
C172        C204   1.479       .  S
C173        H176   1.089       .  S
O177        C185   1.291       .  A
O177       Co197   2.028   1_655  S
O178        C186   1.270       .  A
O178       Co198   2.055   1_655  S
O179        C187   1.256   1_455  A
O179       Co199   2.003       .  S
O180        C188   1.266   1_455  A
O180       Co200   1.966       .  S
O181        C187   1.287       .  A
O181       Co198   2.023   1_655  S
O182        C188   1.303       .  A
O182       Co197   2.103   1_655  S
O183        C186   1.247   1_455  A
O183       Co200   1.995       .  S
O184        C185   1.263   1_455  A
O184       Co199   2.001       .  S
C187        C609   1.512       .  S
O189        C202   1.297       .  A
O189       Co197   2.144       .  S
O190        C203   1.269       .  A
O190       Co198   2.000       .  S
O191        C204   1.267       .  A
O191       Co199   1.989       .  S
O192        C205   1.275       .  A
O192       Co200   2.002       .  S
O193        C205   1.298       .  A
O193       Co198   2.115       .  S
O194        C204   1.257       .  A
O194       Co197   1.967       .  S
O195        C202   1.258       .  A
O195       Co200   1.960       .  S
O196        C203   1.273       .  A
O196       Co199   1.976       .  S
Co197       O201   2.168       .  S
Co198       O201   2.097       .  S
Co199       O201   2.183       .  S
Co200       O201   2.013       .  S
C202        C217   1.520       .  S
C203        C762   1.485       .  S
C205        C206   1.513       .  S
C206        C207   1.449       .  A
C206        C211   1.398       .  A
C207        C208   1.435       .  A
C207        H212   1.081       .  S
C208        C209   1.387       .  A
C208        C292   1.520       .  S
C209        C210   1.387       .  A
C209        H213   1.086       .  S
C210        C211   1.401       .  A
C210       C1177   1.455       .  S
C211        H214   1.084       .  S
C215        C216   1.403       .  A
C215        C220   1.394       .  A
C215       C1189   1.450       .  S
C216        C217   1.397       .  A
C216        H221   1.084       .  S
C217        C218   1.445       .  A
C218        C219   1.437       .  A
C218        H222   1.077       .  S
C219        C220   1.388       .  A
C219        C276   1.513       .  S
C220        H223   1.086       .  S
C224        C225   1.388       .  A
C224        C229   1.392       .  A
C224       C1216   1.466       .  S
C225        C226   1.400       .  A
C225        H230   1.085       .  S
C226        C227   1.459       .  A
C226        C597   1.530       .  S
C227        C228   1.457       .  A
C227        H231   1.082       .  S
C228        C229   1.407       .  A
C228        C422   1.536       .  S
C229        H232   1.084       .  S
C233        C234   1.376       .  A
C233        C238   1.374       .  A
C233       C1360   1.424       .  S
C234        C235   1.385       .  A
C234        H239   1.086       .  S
C235        C236   1.446       .  A
C235        C594   1.504       .  S
C236        C237   1.444       .  A
C236        H240   1.081       .  S
C237        C238   1.384       .  A
C237        C424   1.503       .  S
C238        H241   1.086       .  S
C242        C243   1.387       .  A
C242        C247   1.433       .  A
C242        C320   1.492       .  S
C243        C244   1.386       .  A
C243        H248   1.085       .  S
C244        C245   1.387       .  A
C244       C1168   1.418       .  S
C245        C246   1.368       .  A
C245        H249   1.087       .  S
C246        C247   1.426       .  A
C247        H250   1.068       .  S
C251        C252   1.430       .  A
C251        C256   1.430       .  A
C251       C1300   1.523       .  S
C252        C253   1.399       .  A
C252       C1156   1.494       .  S
C253        C254   1.380       .  A
C253       C1141   1.448       .  S
C254        C255   1.378       .  A
C254       C1132   1.485       .  S
C255        C256   1.400       .  A
C255       C1165   1.451       .  S
C256       C1264   1.486       .  S
C257        C258   1.393       .  A
C257        C262   1.444       .  A
C257        C277   1.506       .  S
C258        C259   1.395       .  A
C258        H263   1.084       .  S
C259        C260   1.391       .  A
C259       C1144   1.442       .  S
C260        C261   1.387       .  A
C260        H264   1.087       .  S
C261        C262   1.435       .  A
C261        C439   1.509       .  S
C262        H265   1.079       .  S
O266        C274   1.271       .  A
O266       Co286   1.975   1_556  S
O267        C275   1.266       .  A
O267       Co287   1.995       .  S
O268        C276   1.276       .  A
O268       Co288   2.063       .  S
O269        C277   1.294       .  A
O269       Co289   2.126       .  S
O270        C276   1.268       .  A
O270       Co287   1.966   1_556  S
O271        C277   1.256       .  A
O271       Co286   1.953       .  S
O272        C275   1.257       .  A
O272       Co289   2.001       .  S
O273        C274   1.294       .  A
O273       Co288   2.081       .  S
C275        C787   1.491       .  S
O278        C291   1.265       .  A
O278       Co286   1.963       .  S
O279        C292   1.268       .  A
O279       Co287   2.059   1_556  S
O280        C293   1.263       .  A
O280       Co288   2.011       .  S
O281        C294   1.285       .  A
O281       Co289   2.010       .  S
O282        C294   1.266       .  A
O282       Co287   1.996       .  S
O283        C293   1.245       .  A
O283       Co286   2.007   1_556  S
O284        C291   1.305       .  A
O284       Co289   2.116       .  S
O285        C292   1.272       .  A
O285       Co288   1.989       .  S
Co286       O290   2.027       .  S
Co287       O290   2.135       .  S
Co288       O290   2.079   1_556  S
Co289       O290   2.165       .  S
C291        C798   1.524       .  S
C294        C326   1.483       .  S
O295        C303   1.247       .  A
O295       Co315   1.996   1_655  S
O296        C304   1.265       .  A
O296       Co316   1.997       .  S
O297        C305   1.274       .  A
O297       Co317   1.992       .  S
O298        C306   1.291       .  A
O298       Co318   2.049       .  S
O299        C305   1.266       .  A
O299       Co316   2.034   1_655  S
O300        C306   1.272       .  A
O300       Co315   1.971       .  S
O301        C304   1.274       .  A
O301       Co318   2.006       .  S
O302        C303   1.265       .  A
O302       Co317   2.045       .  S
C304        C328   1.492       .  S
C305        C335   1.497       .  S
C306        C818   1.505       .  S
O307        C320   1.259       .  A
O307       Co315   1.941       .  S
O308        C321   1.261       .  A
O308       Co316   1.946   1_655  S
O309        C322   1.296       .  A
O309       Co317   2.104       .  S
O310        C323   1.261       .  A
O310       Co318   2.020       .  S
O311        C323   1.264       .  A
O311       Co316   1.996       .  S
O312        C322   1.283   1_455  A
O312       Co315   2.015       .  S
O313        C320   1.289       .  A
O313       Co318   2.098       .  S
O314        C321   1.270       .  A
O314       Co317   2.020       .  S
Co315       O319   2.017       .  S
Co316       O319   2.140       .  S
Co317       O319   2.094   1_655  S
Co318       O319   2.154       .  S
C321        C344   1.472       .  S
C322        C389   1.523       .  S
C323        C791   1.499       .  S
C324        C325   1.403       .  A
C324        C329   1.411       .  A
C324       C1120   1.471       .  S
C325        C326   1.374       .  A
C325        H330   1.083       .  S
C326        C327   1.408       .  A
C327        C328   1.418       .  A
C327        H331   1.078       .  S
C328        C329   1.400       .  A
C329        H332   1.082       .  S
C333        C334   1.427       .  A
C333        C338   1.414       .  A
C333        C360   1.518       .  S
C334        C335   1.419       .  A
C334        H339   1.069       .  S
C335        C336   1.381       .  A
C336        C337   1.394       .  A
C336        H340   1.085       .  S
C337        C338   1.420       .  A
C337       C1108   1.485       .  S
C338        H341   1.083       .  S
C342        C343   1.379       .  A
C342        C347   1.393       .  A
C342       C1093   1.422       .  S
C343        C344   1.356       .  A
C343        H348   1.090       .  S
C344        C345   1.426       .  A
C345        C346   1.434       .  A
C345        H349   1.072       .  S
C346        C347   1.396       .  A
C346        C362   1.496       .  S
C347        H350   1.084       .  S
O351        C359   1.259       .  A
O351       Co371   2.027   1_554  S
O352        C360   1.278       .  A
O352       Co372   2.071   1_554  S
O353        C361   1.259       .  A
O353       Co373   1.955       .  S
O354        C362   1.263       .  A
O354       Co374   1.967   1_554  S
O355        C361   1.270       .  A
O355       Co372   2.045   1_554  S
O356        C362   1.283       .  A
O356       Co371   2.072   1_554  S
O357        C360   1.270       .  A
O357       Co374   2.004   1_554  S
O358        C359   1.263       .  A
O358       Co373   1.964       .  S
C359        C408   1.502       .  S
C361        C462   1.486       .  S
O363        C376   1.305       .  A
O363       Co371   2.104       .  S
O364        C377   1.288       .  A
O364       Co372   2.019       .  S
O365        C378   1.266       .  A
O365       Co373   2.012   1_556  S
O366        C379   1.262       .  A
O366       Co374   1.938       .  S
O367        C379   1.309       .  A
O367       Co372   2.130       .  S
O368        C378   1.290       .  A
O368       Co371   2.020       .  S
O369        C376   1.267       .  A
O369       Co374   1.972       .  S
O370        C377   1.269       .  A
O370       Co373   2.030   1_556  S
Co371       O375   2.173   1_556  S
Co372       O375   2.171   1_556  S
Co373       O375   2.103       .  S
Co374       O375   1.932   1_556  S
C377        C600   1.521       .  S
C380        C381   1.379       .  A
C380        C385   1.434       .  A
C380        C492   1.486       .  S
C381        C382   1.377       .  A
C381        H386   1.086       .  S
C382        C383   1.389       .  A
C382       C1084   1.430       .  S
C383        C384   1.388       .  A
C383        H387   1.085       .  S
C384        C385   1.432       .  A
C384        C641   1.497       .  S
C385        H388   1.082   1_565  S
C389        C390   1.433       .  A
C389        C394   1.408       .  A
C390        C391   1.423       .  A
C390        H395   1.062   1_655  S
C391        C392   1.374       .  A
C392        C393   1.391       .  A
C392        H396   1.087       .  S
C393        C394   1.415       .  A
C393       C1072   1.454       .  S
C394        H397   1.083       .  S
C398        C399   1.393       .  A
C398        C403   1.384       .  A
C398       C1069   1.459       .  S
C399        C400   1.399       .  A
C399       C1288   1.450       .  S
C400        C401   1.380       .  A
C400       C1081   1.435       .  S
C401        C402   1.370       .  A
C401       C1045   1.455       .  S
C402        C403   1.379       .  A
C402       C1057   1.444       .  S
C403       C1096   1.444       .  S
C404        C405   1.394       .  A
C404        C409   1.386       .  A
C404       C1060   1.455       .  S
C405        C406   1.398       .  A
C405        H410   1.085       .  S
C406        C407   1.440       .  A
C406        C440   1.506       .  S
C407        C408   1.441       .  A
C407        H411   1.082       .  S
C408        C409   1.396       .  A
C409        H412   1.085       .  S
O413        C421   1.292       .  A
O413       Co433   2.026       .  S
O414        C422   1.271       .  A
O414       Co434   2.046       .  S
O415        C423   1.260       .  A
O415       Co435   2.034   1_556  S
O416        C424   1.262       .  A
O416       Co436   1.944       .  S
O417        C423   1.274       .  A
O417       Co434   1.990       .  S
O418        C424   1.307       .  A
O418       Co433   2.105       .  S
O419        C422   1.250       .  A
O419       Co436   2.022       .  S
O420        C421   1.268       .  A
O420       Co435   2.019   1_556  S
O425        C438   1.295       .  A
O425       Co433   2.109   1_554  S
O426        C439   1.275       .  A
O426       Co434   2.060   1_554  S
O427        C440   1.261       .  A
O427       Co435   1.967       .  S
O428        C441   1.273       .  A
O428       Co436   1.994   1_554  S
O429        C441   1.297       .  A
O429       Co434   2.115   1_554  S
O430        C440   1.258       .  A
O430       Co433   2.029   1_554  S
O431        C438   1.259       .  A
O431       Co436   1.944   1_554  S
O432        C439   1.267       .  A
O432       Co435   1.957       .  S
Co433       O437   2.178   1_556  S
Co434       O437   2.089   1_556  S
Co435       O437   2.140       .  S
Co436       O437   2.017   1_556  S
C438        C453   1.498       .  S
C441        C442   1.518       .  S
C442        C443   1.407       .  A
C442        C447   1.447       .  A
C443        C444   1.415       .  A
C443        H448   1.084       .  S
C444        C445   1.390       .  A
C444       C1153   1.486       .  S
C445        C446   1.382       .  A
C445        H449   1.078       .  S
C446        C447   1.432       .  A
C446        C510   1.519       .  S
C447        H450   1.081       .  S
C451        C452   1.387       .  A
C451        C456   1.402       .  A
C451       C1048   1.449       .  S
C452        C453   1.386       .  A
C452        H457   1.085       .  S
C453        C454   1.436       .  A
C454        C455   1.430       .  A
C454        H458   1.076       .  S
C455        C456   1.396       .  A
C455        C494   1.506       .  S
C456        H459   1.084       .  S
C460        C461   1.431       .  A
C460        C465   1.391       .  A
C460        C538   1.496       .  S
C461        C462   1.424       .  A
C461        H466   1.076       .  S
C462        C463   1.383       .  A
C463        C464   1.389       .  A
C463        H467   1.086       .  S
C464        C465   1.397       .  A
C464       C1033   1.440       .  S
C465        H468   1.085       .  S
C469        C470   1.411       .  A
C469        C474   1.405       .  A
C469       C1309   1.511       .  S
C470        C471   1.417       .  A
C470       C1105   1.492       .  S
C471        C472   1.404       .  A
C471       C1036   1.461       .  S
C472        C473   1.400       .  A
C472        C997   1.467       .  S
C473        C474   1.396       .  A
C473       C1009   1.485       .  S
C474       C1021   1.508       .  S
C475        C476   1.414       .  A
C475        C480   1.438       .  A
C475        C495   1.516       .  S
C476        C477   1.422       .  A
C476        H481   1.082       .  S
C477        C478   1.388       .  A
C477       C1012   1.499       .  S
C478        C479   1.391       .  A
C478        H482   1.078       .  S
C479        C480   1.425       .  A
C479        C657   1.508       .  S
C480        H483   1.082       .  S
O484        C492   1.276   1_545  A
O484       Co504   1.995       .  S
O485        C493   1.262       .  A
O485       Co505   1.973       .  S
O486        C494   1.277       .  A
O486       Co506   2.064       .  S
O487        C495   1.293       .  A
O487       Co507   2.132       .  S
O488        C494   1.264       .  A
O488       Co505   1.968   1_565  S
O489        C495   1.262       .  A
O489       Co504   1.959       .  S
O490        C493   1.257       .  A
O490       Co507   2.009       .  S
O491        C492   1.293       .  A
O491       Co506   2.065       .  S
C493        C782   1.492       .  S
O496        C509   1.268       .  A
O496       Co504   1.959       .  S
O497        C510   1.267       .  A
O497       Co505   2.049   1_565  S
O498        C511   1.268       .  A
O498       Co506   2.054       .  S
O499        C512   1.283       .  A
O499       Co507   1.996       .  S
O500        C512   1.269       .  A
O500       Co505   2.008       .  S
O501        C511   1.249   1_545  A
O501       Co504   1.994       .  S
O502        C509   1.301       .  A
O502       Co507   2.107       .  S
O503        C510   1.277       .  A
O503       Co506   1.995       .  S
Co504       O508   1.992       .  S
Co505       O508   2.119       .  S
Co506       O508   2.087   1_565  S
Co507       O508   2.170       .  S
C509        C807   1.516       .  S
C512        C544   1.482       .  S
O513        C521   1.247       .  A
O513       Co533   2.014   1_556  S
O514        C522   1.269       .  A
O514       Co534   2.014   1_554  S
O515        C523   1.283       .  A
O515       Co535   2.030       .  S
O516        C524   1.304       .  A
O516       Co536   2.103       .  S
O517        C523   1.261       .  A
O517       Co534   2.023       .  S
O518        C524   1.266       .  A
O518       Co533   1.965       .  S
O519        C522   1.281       .  A
O519       Co536   2.006       .  S
O520        C521   1.265       .  A
O520       Co535   2.003       .  S
C522        C546   1.494       .  S
C523        C553   1.526       .  S
C524        C800   1.519       .  S
O525        C538   1.259       .  A
O525       Co533   1.945       .  S
O526        C539   1.271       .  A
O526       Co534   1.981       .  S
O527        C540   1.295       .  A
O527       Co535   2.096       .  S
O528        C541   1.261       .  A
O528       Co536   2.015       .  S
O529        C541   1.264       .  A
O529       Co534   1.982   1_554  S
O530        C540   1.273       .  A
O530       Co533   1.994   1_556  S
O531        C538   1.291       .  A
O531       Co536   2.106       .  S
O532        C539   1.268       .  A
O532       Co535   1.994       .  S
Co533       O537   2.040   1_554  S
Co534       O537   2.156       .  S
Co535       O537   2.074       .  S
Co536       O537   2.171   1_554  S
C539        C562   1.488       .  S
C540        C598   1.505       .  S
C541        C778   1.498       .  S
C542        C543   1.386       .  A
C542        C547   1.399       .  A
C542        C985   1.437       .  S
C543        C544   1.382       .  A
C543        H548   1.086       .  S
C544        C545   1.423       .  A
C545        C546   1.425       .  A
C545        H549   1.080       .  S
C546        C547   1.391       .  A
C547        H550   1.085       .  S
C551        C552   1.454       .  A
C551        C556   1.383       .  A
C551        C578   1.513       .  S
C552        C553   1.445       .  A
C552        H557   1.081       .  S
C553        C554   1.389       .  A
C554        C555   1.393       .  A
C554        H558   1.085       .  S
C555        C556   1.389       .  A
C555        C973   1.446       .  S
C556        H559   1.085       .  S
C560        C561   1.394       .  A
C560        C565   1.375       .  A
C560        C964   1.431       .  S
C561        C562   1.393       .  A
C561        H566   1.085       .  S
C562        C563   1.434       .  A
C563        C564   1.433       .  A
C563        H567   1.082       .  S
C564        C565   1.380       .  A
C564        C580   1.472       .  S
C565        H568   1.084       .  S
O569        C577   1.257       .  A
O569       Co589   2.025       .  S
O570        C578   1.298       .  A
O570       Co590   2.112       .  S
O571        C579   1.268       .  A
O571       Co591   1.965       .  S
O572        C580   1.251       .  A
O572       Co592   1.918       .  S
O573        C579   1.281       .  A
O573       Co590   2.081       .  S
O574        C580   1.292       .  A
O574       Co589   2.110       .  S
O575        C578   1.269       .  A
O575       Co592   1.995       .  S
O576        C577   1.263       .  A
O576       Co591   1.982       .  S
C577        C624   1.511       .  S
C579        C682   1.523       .  S
O581        C594   1.307       .  A
O581       Co589   2.121   1_565  S
O582        C595   1.286       .  A
O582       Co590   2.039   1_565  S
O583        C596   1.272   1_545  A
O583       Co591   2.025       .  S
O584        C597   1.241       .  A
O584       Co592   1.995   1_565  S
O585        C597   1.281       .  A
O585       Co590   2.072   1_565  S
O586        C596   1.292       .  A
O586       Co589   2.019   1_565  S
O587        C594   1.256   1_545  A
O587       Co592   1.934       .  S
O588        C595   1.262   1_545  A
O588       Co591   2.027       .  S
Co589       O593   2.176       .  S
Co590       O593   2.111       .  S
Co591       O593   2.134       .  S
Co592       O593   2.049       .  S
C598        C599   1.446       .  A
C598        C603   1.386       .  A
C599        C600   1.443       .  A
C599        H604   1.082       .  S
C600        C601   1.388       .  A
C601        C602   1.393       .  A
C601        H605   1.085       .  S
C602        C603   1.385       .  A
C602        C952   1.440       .  S
C603        H606   1.085       .  S
C607        C608   1.447       .  A
C607        C612   1.410       .  A
C607        C730   1.529       .  S
C608        C609   1.440       .  A
C608        H613   1.078   1_655  S
C609        C610   1.370       .  A
C610        C611   1.385       .  A
C610        H614   1.085       .  S
C611        C612   1.414       .  A
C611        C937   1.467       .  S
C612        H615   1.084       .  S
C616        C617   1.389       .  A
C616        C621   1.377       .  A
C616        C961   1.446       .  S
C617        C618   1.396       .  A
C617        C949   1.463       .  S
C618        C619   1.401       .  A
C618       C1276   1.447       .  S
C619        C620   1.398       .  A
C619        C940   1.472       .  S
C620        C621   1.384       .  A
C620        C913   1.445       .  S
C621        C925   1.465       .  S
C622        C623   1.403       .  A
C622        C627   1.393       .  A
C622        C928   1.462       .  S
C623        C624   1.401       .  A
C623        H628   1.084       .  S
C624        C625   1.438       .  A
C625        C626   1.438       .  A
C625        H629   1.082       .  S
C626        C627   1.397       .  A
C626        C658   1.506       .  S
C627        H630   1.085       .  S
O631        C639   1.291       .  A
O631       Co651   2.017   1_565  S
O632        C640   1.274       .  A
O632       Co652   2.033   1_565  S
O633        C641   1.260   1_545  A
O633       Co653   2.012       .  S
O634        C642   1.264   1_545  A
O634       Co654   1.941       .  S
O635        C641   1.275       .  A
O635       Co652   2.000   1_565  S
O636        C642   1.306       .  A
O636       Co651   2.104   1_565  S
O637        C640   1.246       .  A
O637       Co654   2.009   1_565  S
O638        C639   1.272   1_545  A
O638       Co653   2.028       .  S
O643        C656   1.289       .  A
O643       Co651   2.096       .  S
O644        C657   1.276       .  A
O644       Co652   2.065       .  S
O645        C658   1.260       .  A
O645       Co653   1.966       .  S
O646        C659   1.278       .  A
O646       Co654   2.020       .  S
O647        C659   1.291       .  A
O647       Co652   2.089       .  S
O648        C658   1.254       .  A
O648       Co651   2.027       .  S
O649        C656   1.258       .  A
O649       Co654   1.914       .  S
O650        C657   1.263       .  A
O650       Co653   1.948       .  S
Co651       O655   2.174       .  S
Co652       O655   2.109       .  S
Co653       O655   2.115       .  S
Co654       O655   2.029       .  S
C656        C671   1.471       .  S
C659        C660   1.521       .  S
C660        C661   1.399       .  A
C660        C665   1.430       .  A
C661        C662   1.418       .  A
C661        H666   1.080       .  S
C662        C663   1.415       .  A
C662       C1024   1.499       .  S
C663        C664   1.388       .  A
C663        H667   1.079       .  S
C664        C665   1.427       .  A
C664        C748   1.510       .  S
C665        H668   1.078       .  S
C669        C670   1.393       .  A
C669        C674   1.378       .  A
C669        C916   1.430       .  S
C670        C671   1.394       .  A
C670        H675   1.084       .  S
C671        C672   1.431       .  A
C672        C673   1.422       .  A
C672        H676   1.082       .  S
C673        C674   1.383       .  A
C673        C732   1.473       .  S
C674        H677   1.089       .  S
C678        C679   1.388       .  A
C678        C683   1.449       .  A
C678        C718   1.506       .  S
C679        C680   1.388       .  A
C679        H684   1.085       .  S
C680        C681   1.398       .  A
C680        C901   1.446       .  S
C681        C682   1.397       .  A
C681        H685   1.085       .  S
C682        C683   1.440       .  A
C683        H686   1.079       .  S
C687        C688   1.404       .  A
C687        C692   1.406       .  A
C687       C1324   1.452       .  S
C688        C689   1.383       .  A
C688       C1180   1.481       .  S
C689        C690   1.382       .  A
C689        C889   1.447       .  S
C690        C691   1.387       .  A
C690        C880   1.474       .  S
C691        C692   1.397       .  A
C691        C904   1.464       .  S
C692        C976   1.458       .  S
O693        C701   1.245   1_545  A
O693       Co713   1.976       .  S
O694        C702   1.270       .  A
O694       Co714   2.018       .  S
O695        C703   1.279       .  A
O695       Co715   2.004       .  S
O696        C704   1.299       .  A
O696       Co716   2.090       .  S
O697        C703   1.266       .  A
O697       Co714   2.046   1_565  S
O698        C704   1.269       .  A
O698       Co713   1.970       .  S
O699        C702   1.286       .  A
O699       Co716   2.014       .  S
O700        C701   1.269       .  A
O700       Co715   2.066       .  S
C702        C753   1.504       .  S
C704        C809   1.512       .  S
O705        C718   1.254       .  A
O705       Co713   1.947       .  S
O706        C719   1.264       .  A
O706       Co714   1.955   1_565  S
O707        C720   1.298       .  A
O707       Co715   2.109       .  S
O708        C721   1.258       .  A
O708       Co716   2.019       .  S
O709        C721   1.264       .  A
O709       Co714   1.989       .  S
O710        C720   1.276   1_545  A
O710       Co713   2.021       .  S
O711        C718   1.300       .  A
O711       Co716   2.142       .  S
O712        C719   1.278       .  A
O712       Co715   2.068       .  S
Co713       O717   1.997       .  S
Co714       O717   2.130       .  S
Co715       O717   2.110   1_565  S
Co716       O717   2.172       .  S
C721        C773   1.503       .  S
O722        C730   1.281   1_455  A
O722       Co742   2.032       .  S
O723        C731   1.270       .  A
O723       Co743   1.993       .  S
O724        C732   1.261       .  A
O724       Co744   1.961       .  S
O725        C733   1.292       .  A
O725       Co745   2.121       .  S
O726        C732   1.269       .  A
O726       Co743   1.972   1_655  S
O727        C733   1.255       .  A
O727       Co742   1.930       .  S
O728        C731   1.256       .  A
O728       Co745   2.000       .  S
O729        C730   1.296       .  A
O729       Co744   2.113       .  S
C731        C769   1.492       .  S
C733        C760   1.494       .  S
O734        C747   1.269       .  A
O734       Co742   1.952       .  S
O735        C748   1.264       .  A
O735       Co743   2.010   1_655  S
O736        C749   1.265       .  A
O736       Co744   2.042       .  S
O737        C750   1.282       .  A
O737       Co745   2.007       .  S
O738        C750   1.262       .  A
O738       Co743   2.006       .  S
O739        C749   1.245   1_455  A
O739       Co742   1.993       .  S
O740        C747   1.294       .  A
O740       Co745   2.074       .  S
O741        C748   1.284       .  A
O741       Co744   2.025       .  S
Co742       O746   2.025       .  S
Co743       O746   2.161       .  S
Co744       O746   2.100   1_655  S
Co745       O746   2.160       .  S
C747        C816   1.502       .  S
C750        C755   1.495       .  S
C751        C752   1.393       .  A
C751        C756   1.386       .  A
C751        C865   1.433       .  S
C752        C753   1.391       .  A
C752        H757   1.085       .  S
C753        C754   1.434       .  A
C754        C755   1.432       .  A
C754        H758   1.080       .  S
C755        C756   1.378       .  A
C756        H759   1.086       .  S
C760        C761   1.442       .  A
C760        C765   1.388       .  A
C761        C762   1.431       .  A
C761        H766   1.078       .  S
C762        C763   1.367       .  A
C763        C764   1.383       .  A
C763        H767   1.089       .  S
C764        C765   1.391       .  A
C764        C892   1.419       .  S
C765        H768   1.085       .  S
C769        C770   1.382       .  A
C769        C774   1.435       .  A
C770        C771   1.390       .  A
C770        H775   1.086       .  S
C771        C772   1.399       .  A
C771        C877   1.443       .  S
C772        C773   1.388       .  A
C772        H776   1.084       .  S
C773        C774   1.430       .  A
C774        H777   1.072       .  S
C778        C779   1.400       .  A
C778        C783   1.428       .  A
C779        C780   1.405       .  A
C779        H784   1.084       .  S
C780        C781   1.394       .  A
C780       C1000   1.464       .  S
C781        C782   1.393       .  A
C781        H785   1.085       .  S
C782        C783   1.427       .  A
C783        H786   1.081       .  S
C787        C788   1.388       .  A
C787        C792   1.422       .  A
C788        C789   1.400       .  A
C788        H793   1.085       .  S
C789        C790   1.408       .  A
C789       C1129   1.456       .  S
C790        C791   1.396       .  A
C790        H794   1.084       .  S
C791        C792   1.420       .  A
C792        H795   1.073       .  S
C796        C797   1.387       .  A
C796        C801   1.379       .  A
C796        C853   1.453       .  S
C797        C798   1.397       .  A
C797        H802   1.085       .  S
C798        C799   1.451       .  A
C799        C800   1.449       .  A
C799        H803   1.082       .  S
C800        C801   1.390       .  A
C801        H804   1.086       .  S
C805        C806   1.387       .  A
C805        C810   1.380       .  A
C805        C844   1.455       .  S
C806        C807   1.400       .  A
C806        H811   1.085       .  S
C807        C808   1.447       .  A
C808        C809   1.445       .  A
C808        H812   1.082       .  S
C809        C810   1.394       .  A
C810        H813   1.086       .  S
C814        C815   1.389       .  A
C814        C819   1.380       .  A
C814        C832   1.478       .  S
C815        C816   1.411       .  A
C815        H820   1.084       .  S
C816        C817   1.436       .  A
C817        C818   1.430       .  A
C817        H821   1.082       .  S
C818        C819   1.399       .  A
C819        H822   1.083       .  S
C823        C824   1.418       .  A
C823        C828   1.419       .  A
C823       C1117   1.495       .  S
C824        C825   1.392       .  A
C824        C856   1.470       .  S
C825        C826   1.375       .  A
C825        C988   1.450       .  S
C826        C827   1.384       .  A
C826        C841   1.472       .  S
C827        C828   1.402       .  A
C827        C868   1.444       .  S
C828        C829   1.491       .  S
C829        C830   1.408       .  A
C829        C834   1.410       .  A
C830        C831   1.402       .  A
C830        H835   1.084       .  S
C831        C832   1.411       .  A
C831        C838   1.443       .  S
C832        C833   1.400       .  A
C833        C834   1.385       .  A
C833        H836   1.086       .  S
C834        C837   1.439       .  S
C837        N839   1.157       .  T
C838        N840   1.157       .  T
C841        C842   1.397       .  A
C841        C846   1.411       .  A
C842        C843   1.390       .  A
C842        H847   1.085       .  S
C843        C844   1.409       .  A
C843        C850   1.445       .  S
C844        C845   1.395       .  A
C845        C846   1.392       .  A
C845        H848   1.085       .  S
C846        C849   1.444       .  S
C849        N851   1.157       .  T
C850        N852   1.157       .  T
C853        C854   1.404       .  A
C853        C858   1.398       .  A
C854        C855   1.390       .  A
C854        H859   1.085       .  S
C855        C856   1.408       .  A
C855        C862   1.444       .  S
C856        C857   1.404       .  A
C857        C858   1.386       .  A
C857        H860   1.082       .  S
C858        C861   1.445       .  S
C861        N863   1.157       .  T
C862        N864   1.157       .  T
C865        C866   1.402       .  A
C865        C870   1.396       .  A
C866        C867   1.380       .  A
C866        H871   1.086       .  S
C867        C868   1.400       .  A
C867        C874   1.442       .  S
C868        C869   1.403       .  A
C869        C870   1.381       .  A
C869        H872   1.086       .  S
C870        C873   1.444       .  S
C873        N875   1.157       .  T
C874        N876   1.157       .  T
C877        C878   1.377       .  A
C877        C882   1.418       .  A
C878        C879   1.379       .  A
C878        H883   1.086       .  S
C879        C880   1.423       .  A
C879        C886   1.434       .  S
C880        C881   1.393       .  A
C881        C882   1.389       .  A
C881        H884   1.085       .  S
C882        C885   1.445       .  S
C885        N887   1.157       .  T
C886        N888   1.154       .  T
C889        C890   1.400       .  A
C889        C894   1.400       .  A
C890        C891   1.382       .  A
C890        H895   1.081       .  S
C891        C892   1.402       .  A
C891        C898   1.444       .  S
C892        C893   1.400       .  A
C893        C894   1.373       .  A
C893        H896   1.087       .  S
C894        C897   1.446       .  S
C897        N899   1.157       .  T
C898        N900   1.157       .  T
C901        C902   1.399       .  A
C901        C906   1.414       .  A
C902        C903   1.397       .  A
C902        H907   1.084       .  S
C903        C904   1.409       .  A
C903        C910   1.443       .  S
C904        C905   1.390       .  A
C905        C906   1.360       .  A
C905        H908   1.076       .  S
C906        C909   1.449       .  S
C909        N911   1.158       .  T
C910        N912   1.157       .  T
C913        C914   1.388       .  A
C913        C918   1.404       .  A
C914        C915   1.365       .  A
C914        H919   1.087       .  S
C915        C916   1.418       .  A
C915        C922   1.448       .  S
C916        C917   1.400       .  A
C917        C918   1.387       .  A
C917        H920   1.085       .  S
C918        C921   1.442       .  S
C921        N923   1.157       .  T
C922        N924   1.158       .  T
C925        C926   1.408       .  A
C925        C930   1.396       .  A
C926        C927   1.394       .  A
C926        H931   1.083       .  S
C927        C928   1.399       .  A
C927        C934   1.442       .  S
C928        C929   1.411       .  A
C929        C930   1.371       .  A
C929        H932   1.080       .  S
C930        C933   1.447       .  S
C933        N935   1.157       .  T
C934        N936   1.157       .  T
C937        C938   1.403       .  A
C937        C942   1.418       .  A
C938        C939   1.386       .  A
C938        H943   1.085       .  S
C939        C940   1.408       .  A
C939        C946   1.442       .  S
C940        C941   1.401       .  A
C941        C942   1.401       .  A
C941        H944   1.084       .  S
C942        C945   1.444       .  S
C945        N947   1.157       .  T
C946        N948   1.157       .  T
C949        C950   1.407       .  A
C949        C954   1.398       .  A
C950        C951   1.374       .  A
C950        H955   1.084       .  S
C951        C952   1.394       .  A
C951        C958   1.445       .  S
C952        C953   1.407       .  A
C953        C954   1.394       .  A
C953        H956   1.085       .  S
C954        C957   1.442       .  S
C957        N959   1.157       .  T
C958        N960   1.157       .  T
C961        C962   1.407       .  A
C961        C966   1.390       .  A
C962        C963   1.378       .  A
C962        H967   1.082       .  S
C963        C964   1.391       .  A
C963        C970   1.443       .  S
C964        C965   1.411       .  A
C965        C966   1.367       .  A
C965        H968   1.085       .  S
C966        C969   1.446       .  S
C969        N971   1.157       .  T
C970        N972   1.157       .  T
C973        C974   1.415       .  A
C973        C978   1.391       .  A
C974        C975   1.387       .  A
C974        H979   1.085       .  S
C975        C976   1.394       .  A
C975        C982   1.443       .  S
C976        C977   1.405       .  A
C977        C978   1.375       .  A
C977        H980   1.070       .  S
C978        C981   1.445       .  S
C981        N983   1.157       .  T
C982        N984   1.157       .  T
C985        C986   1.399       .  A
C985        C990   1.400       .  A
C986        C987   1.378       .  A
C986        H991   1.086       .  S
C987        C988   1.405       .  A
C987        C994   1.442       .  S
C988        C989   1.401       .  A
C989        C990   1.386       .  A
C989        H992   1.085       .  S
C990        C993   1.443       .  S
C993        N995   1.157       .  T
C994        N996   1.157       .  T
C997        C998   1.413       .  A
C997       C1002   1.405       .  A
C998        C999   1.392       .  A
C998       H1003   1.082       .  S
C999       C1000   1.397       .  A
C999       C1006   1.443       .  S
C1000      C1001   1.407       .  A
C1001      C1002   1.381       .  A
C1001      H1004   1.083       .  S
C1002      C1005   1.440       .  S
C1005      N1007   1.157       .  T
C1006      N1008   1.157       .  T
C1009      C1010   1.392       .  A
C1009      C1014   1.406       .  A
C1010      C1011   1.383       .  A
C1010      H1015   1.080       .  S
C1011      C1012   1.433       .  A
C1011      C1018   1.445       .  S
C1012      C1013   1.405       .  A
C1013      C1014   1.401       .  A
C1013      H1016   1.083       .  S
C1014      C1017   1.438       .  S
C1017      N1019   1.157       .  T
C1018      N1020   1.158       .  T
C1021      C1022   1.415       .  A
C1021      C1026   1.434       .  A
C1022      C1023   1.398       .  A
C1022      H1027   1.083       .  S
C1023      C1024   1.407       .  A
C1023      C1030   1.444       .  S
C1024      C1025   1.398       .  A
C1025      C1026   1.393       .  A
C1025      H1028   1.082       .  S
C1026      C1029   1.445       .  S
C1029      N1031   1.158       .  T
C1030      N1032   1.157       .  T
C1033      C1034   1.400       .  A
C1033      C1038   1.393       .  A
C1034      C1035   1.380       .  A
C1034      H1039   1.086       .  S
C1035      C1036   1.409       .  A
C1035      C1042   1.442       .  S
C1036      C1037   1.409       .  A
C1037      C1038   1.385       .  A
C1037      H1040   1.079       .  S
C1038      C1041   1.444       .  S
C1041      N1043   1.157       .  T
C1042      N1044   1.158       .  T
C1045      C1046   1.388       .  A
C1045      C1050   1.411       .  A
C1046      C1047   1.372       .  A
C1046      H1051   1.084       .  S
C1047      C1048   1.419       .  A
C1047      C1054   1.447       .  S
C1048      C1049   1.394       .  A
C1049      C1050   1.393       .  A
C1049      H1052   1.085       .  S
C1050      C1053   1.443       .  S
C1053      N1055   1.157       .  T
C1054      N1056   1.157       .  T
C1057      C1058   1.408       .  A
C1057      C1062   1.391       .  A
C1058      C1059   1.383       .  A
C1058      H1063   1.084       .  S
C1059      C1060   1.393       .  A
C1059      C1066   1.442       .  S
C1060      C1061   1.417       .  A
C1061      C1062   1.374       .  A
C1061      H1064   1.078       .  S
C1062      C1065   1.446       .  S
C1065      N1067   1.157       .  T
C1066      N1068   1.157       .  T
C1069      C1070   1.393       .  A
C1069      C1074   1.408       .  A
C1070      C1071   1.383       .  A
C1070      H1075   1.084       .  S
C1071      C1072   1.417       .  A
C1071      C1078   1.449       .  S
C1072      C1073   1.397       .  A
C1073      C1074   1.396       .  A
C1073      H1076   1.084       .  S
C1074      C1077   1.443       .  S
C1077      N1079   1.157       .  T
C1078      N1080   1.158       .  T
C1081      C1082   1.389       .  A
C1081      C1086   1.405       .  A
C1082      C1083   1.377       .  A
C1082      H1087   1.085       .  S
C1083      C1084   1.416       .  A
C1083      C1090   1.448       .  S
C1084      C1085   1.389       .  A
C1085      C1086   1.377       .  A
C1085      H1088   1.084       .  S
C1086      C1089   1.443       .  S
C1089      N1091   1.157       .  T
C1090      N1092   1.158       .  T
C1093      C1094   1.395       .  A
C1093      C1098   1.409       .  A
C1094      C1095   1.373       .  A
C1094      H1099   1.086       .  S
C1095      C1096   1.406       .  A
C1095      C1102   1.445       .  S
C1096      C1097   1.396       .  A
C1097      C1098   1.385       .  A
C1097      H1100   1.085       .  S
C1098      C1101   1.445       .  S
C1101      N1103   1.157       .  T
C1102      N1104   1.157       .  T
C1105      C1106   1.404       .  A
C1105      C1110   1.401       .  A
C1106      C1107   1.398       .  A
C1106      H1111   1.076       .  S
C1107      C1108   1.404       .  A
C1107      C1114   1.443       .  S
C1108      C1109   1.417       .  A
C1109      C1110   1.390       .  A
C1109      H1112   1.083       .  S
C1110      C1113   1.441       .  S
C1113      N1115   1.157       .  T
C1114      N1116   1.157       .  T
C1117      C1118   1.407       .  A
C1117      C1122   1.396       .  A
C1118      C1119   1.399       .  A
C1118      H1123   1.084       .  S
C1119      C1120   1.414       .  A
C1119      C1126   1.443       .  S
C1120      C1121   1.406       .  A
C1121      C1122   1.371       .  A
C1121      H1124   1.082       .  S
C1122      C1125   1.438       .  S
C1125      N1127   1.157       .  T
C1126      N1128   1.157       .  T
C1129      C1130   1.402       .  A
C1129      C1134   1.400       .  A
C1130      C1131   1.387       .  A
C1130      H1135   1.086       .  S
C1131      C1132   1.407       .  A
C1131      C1138   1.444       .  S
C1132      C1133   1.405       .  A
C1133      C1134   1.395       .  A
C1133      H1136   1.084       .  S
C1134      C1137   1.442       .  S
C1137      N1139   1.157       .  T
C1138      N1140   1.157       .  T
C1141      C1142   1.404       .  A
C1141      C1146   1.401       .  A
C1142      C1143   1.388       .  A
C1142      H1147   1.085       .  S
C1143      C1144   1.396       .  A
C1143      C1150   1.442       .  S
C1144      C1145   1.406       .  A
C1145      C1146   1.376       .  A
C1145      H1148   1.086       .  S
C1146      C1149   1.445       .  S
C1149      N1151   1.158       .  T
C1150      N1152   1.157       .  T
C1153      C1154   1.407       .  A
C1153      C1158   1.416       .  A
C1154      C1155   1.396       .  A
C1154      H1159   1.085       .  S
C1155      C1156   1.413       .  A
C1155      C1162   1.443       .  S
C1156      C1157   1.397       .  A
C1157      C1158   1.400       .  A
C1157      H1160   1.078       .  S
C1158      C1161   1.445       .  S
C1161      N1163   1.158       .  T
C1162      N1164   1.157       .  T
C1165      C1166   1.396       .  A
C1165      C1170   1.408       .  A
C1166      C1167   1.374       .  A
C1166      H1171   1.086       .  S
C1167      C1168   1.402       .  A
C1167      C1174   1.447       .  S
C1168      C1169   1.394       .  A
C1169      C1170   1.380       .  A
C1169      H1172   1.086       .  S
C1170      C1173   1.442       .  S
C1173      N1175   1.157       .  T
C1174      N1176   1.157       .  T
C1177      C1178   1.391       .  A
C1177      C1182   1.413       .  A
C1178      C1179   1.390       .  A
C1178      H1183   1.086       .  S
C1179      C1180   1.417       .  A
C1179      C1186   1.436       .  S
C1180      C1181   1.402       .  A
C1181      C1182   1.393       .  A
C1181      H1184   1.085       .  S
C1182      C1185   1.446       .  S
C1185      N1187   1.157       .  T
C1186      N1188   1.157       .  T
C1189      C1190   1.399       .  A
C1189      C1194   1.409       .  A
C1190      C1191   1.399       .  A
C1190      H1195   1.084       .  S
C1191      C1192   1.411       .  A
C1191      C1198   1.442       .  S
C1192      C1193   1.395       .  A
C1193      C1194   1.372       .  A
C1193      H1196   1.079       .  S
C1194      C1197   1.448       .  S
C1197      N1199   1.157       .  T
C1198      N1200   1.157       .  T
C1201      C1202   1.386       .  A
C1201      C1206   1.401       .  A
C1202      C1203   1.348       .  A
C1202      H1207   1.089       .  S
C1203      C1204   1.408       .  A
C1203      C1210   1.442       .  S
C1204      C1205   1.401       .  A
C1205      C1206   1.392       .  A
C1205      H1208   1.084       .  S
C1206      C1209   1.442       .  S
C1209      N1211   1.157       .  T
C1210      N1212   1.154       .  T
C1213      C1214   1.404       .  A
C1213      C1218   1.398       .  A
C1214      C1215   1.398       .  A
C1214      H1219   1.079       .  S
C1215      C1216   1.403       .  A
C1215      C1222   1.440       .  S
C1216      C1217   1.408       .  A
C1217      C1218   1.359       .  A
C1217      H1220   1.074       .  S
C1218      C1221   1.452       .  S
C1221      N1223   1.157       .  T
C1222      N1224   1.156       .  T
C1225      C1226   1.388       .  A
C1225      C1230   1.415       .  A
C1226      C1227   1.388       .  A
C1226      H1231   1.085       .  S
C1227      C1228   1.414       .  A
C1227      C1234   1.438       .  S
C1228      C1229   1.390       .  A
C1229      C1230   1.368       .  A
C1229      H1232   1.085       .  S
C1230      C1233   1.447       .  S
C1233      N1235   1.157       .  T
C1234      N1236   1.156       .  T
C1237      C1238   1.400       .  A
C1237      C1242   1.410       .  A
C1238      C1239   1.380       .  A
C1238      H1243   1.086       .  S
C1239      C1240   1.408       .  A
C1239      C1246   1.447       .  S
C1240      C1241   1.383       .  A
C1241      C1242   1.371       .  A
C1241      H1244   1.087       .  S
C1242      C1245   1.436       .  S
C1245      N1247   1.156       .  T
C1246      N1248   1.158       .  T
C1249      C1250   1.405       .  A
C1249      C1254   1.399       .  A
C1250      C1251   1.375       .  A
C1250      H1255   1.086       .  S
C1251      C1252   1.403       .  A
C1251      C1258   1.443       .  S
C1252      C1253   1.406       .  A
C1253      C1254   1.390       .  A
C1253      H1256   1.085       .  S
C1254      C1257   1.443       .  S
C1257      N1259   1.157       .  T
C1258      N1260   1.157       .  T
C1261      C1262   1.393       .  A
C1261      C1266   1.411       .  A
C1262      C1263   1.391       .  A
C1262      H1267   1.087       .  S
C1263      C1264   1.422       .  A
C1263      C1270   1.435       .  S
C1264      C1265   1.408       .  A
C1265      C1266   1.392       .  A
C1265      H1268   1.080       .  S
C1266      C1269   1.446       .  S
C1269      N1271   1.158       .  T
C1270      N1272   1.154       .  T
C1273      C1274   1.400       .  A
C1273      C1278   1.418       .  A
C1274      C1275   1.397       .  A
C1274      H1279   1.084       .  S
C1275      C1276   1.407       .  A
C1275      C1282   1.443       .  S
C1276      C1277   1.382       .  A
C1277      C1278   1.358       .  A
C1277      H1280   1.077       .  S
C1278      C1281   1.447       .  S
C1281      N1283   1.158       .  T
C1282      N1284   1.157       .  T
C1285      C1286   1.402       .  A
C1285      C1290   1.420       .  A
C1286      C1287   1.397       .  A
C1286      H1291   1.084       .  S
C1287      C1288   1.401       .  A
C1287      C1294   1.440       .  S
C1288      C1289   1.389       .  A
C1289      C1290   1.368       .  A
C1289      H1292   1.087       .  S
C1290      C1293   1.447       .  S
C1293      N1295   1.158       .  T
C1294      N1296   1.157       .  T
C1297      C1298   1.396       .  A
C1297      C1302   1.395       .  A
C1298      C1299   1.408       .  A
C1298      H1303   1.085       .  S
C1299      C1300   1.439       .  A
C1299      C1306   1.432       .  S
C1300      C1301   1.425       .  A
C1301      C1302   1.395       .  A
C1301      H1304   1.072       .  S
C1302      C1305   1.439       .  S
C1305      N1307   1.156       .  T
C1306      N1308   1.158       .  T
C1309      C1310   1.420       .  A
C1309      C1314   1.424       .  A
C1310      C1311   1.397       .  A
C1310      H1315   1.078       .  S
C1311      C1312   1.403       .  A
C1311      C1318   1.442       .  S
C1312      C1313   1.405       .  A
C1313      C1314   1.401       .  A
C1313      H1316   1.084       .  S
C1314      C1317   1.445       .  S
C1317      N1319   1.158       .  T
C1318      N1320   1.157       .  T
C1321      C1322   1.419       .  A
C1321      C1326   1.407       .  A
C1322      C1323   1.372       .  A
C1322      H1327   1.074       .  S
C1323      C1324   1.389       .  A
C1323      C1330   1.449       .  S
C1324      C1325   1.403       .  A
C1325      C1326   1.395       .  A
C1325      H1328   1.081       .  S
C1326      C1329   1.444       .  S
C1329      N1331   1.157       .  T
C1330      N1332   1.157       .  T
C1333      C1334   1.400       .  A
C1333      C1338   1.398       .  A
C1334      C1335   1.375       .  A
C1334      H1339   1.086       .  S
C1335      C1336   1.396       .  A
C1335      C1342   1.445       .  S
C1336      C1337   1.401       .  A
C1337      C1338   1.384       .  A
C1337      H1340   1.085       .  S
C1338      C1341   1.443       .  S
C1341      N1343   1.157       .  T
C1342      N1344   1.157       .  T
C1345      C1346   1.393       .  A
C1345      C1350   1.411       .  A
C1346      C1347   1.383       .  A
C1346      H1351   1.085       .  S
C1347      C1348   1.409       .  A
C1347      C1354   1.445       .  S
C1348      C1349   1.390       .  A
C1349      C1350   1.382       .  A
C1349      H1352   1.085       .  S
C1350      C1353   1.445       .  S
C1353      N1355   1.157       .  T
C1354      N1356   1.157       .  T
C1357      C1358   1.400       .  A
C1357      C1362   1.395       .  A
C1358      C1359   1.376       .  A
C1358      H1363   1.082       .  S
C1359      C1360   1.395       .  A
C1359      C1366   1.445       .  S
C1360      C1361   1.403       .  A
C1361      C1362   1.382       .  A
C1361      H1364   1.086       .  S
C1362      C1365   1.442       .  S
C1365      N1367   1.157       .  T
C1366      N1368   1.157       .  T
C1369      C1370   1.401       .  A
C1369      C1374   1.397       .  A
C1370      C1371   1.377       .  A
C1370      H1375   1.086       .  S
C1371      C1372   1.402       .  A
C1371      C1378   1.444       .  S
C1372      C1373   1.401       .  A
C1373      C1374   1.386       .  A
C1373      H1376   1.085       .  S
C1374      C1377   1.442       .  S
C1377      N1379   1.157       .  T
C1378      N1380   1.158       .  T
C1381      C1382   1.401       .  A
C1381      C1386   1.399       .  A
C1382      C1383   1.380       .  A
C1382      H1387   1.085       .  S
C1383      C1384   1.394       .  A
C1383      C1390   1.443       .  S
C1384      C1385   1.402       .  A
C1385      C1386   1.378       .  A
C1385      H1388   1.086       .  S
C1386      C1389   1.444       .  S
C1389      N1391   1.157       .  T
C1390      N1392   1.157       .  T
C1393      C1394   1.390       .  A
C1393      C1398   1.414       .  A
C1394      C1395   1.381       .  A
C1394      H1399   1.085       .  S
C1395      C1396   1.408       .  A
C1395      C1402   1.445       .  S
C1396      C1397   1.388       .  A
C1397      C1398   1.377       .  A
C1397      H1400   1.085       .  S
C1398      C1401   1.448       .  S
C1401      N1403   1.157       .  T
C1402      N1404   1.157       .  T
