geometry optimzed in LAMMPS
_audit_creation_date              2020-11-30 
_audit_creation_method            'lammps2cif' 
_symmetry_space_group_name_H-M    'P1' 
_symmetry_Int_Tables_number       1 
_symmetry_cell_setting            triclinic 
loop_ 
_symmetry_equiv_pos_as_xyz 
  x,y,z 
_cell_length_a                    82.9537467 
_cell_length_b                    83.05147630333975 
_cell_length_c                    43.914419220948616 
_cell_angle_alpha                 89.89588734517758 
_cell_angle_beta                  90.36824858713577 
_cell_angle_gamma                 120.08850187140867 
loop_ 
_atom_site_label 
_atom_site_type_symbol 
_atom_site_fract_x 
_atom_site_fract_y 
_atom_site_fract_z 
_atom_site_charge 
N1          N  0.74848297  0.25891397  0.20305053    -0.35100
N2          N  0.77581597  0.28025583  0.24986359    -0.55700
N3          N  0.74858583  0.25843102  0.29665496    -0.35100
N4          N  0.72174037  0.23595186  0.24969505    -0.55700
C5          C  0.76397613  0.26824230  0.18578849     0.28400
C6          C  0.73532647  0.24498304  0.18572652     0.28400
C7          C  0.76416906  0.26763650  0.31400775     0.28400
C8          C  0.73542374  0.24460455  0.31392549     0.28400
C9          C  0.78557929  0.29011159  0.22534823     0.37100
C10         C  0.78575315  0.28966557  0.27470259     0.37100
C11         C  0.71050329  0.22941491  0.22492018     0.37100
C12         C  0.71058038  0.22914496  0.27430270     0.37100
C13         C  0.76046837  0.26027435  0.15700572    -0.20400
C14         C  0.74248870  0.24558314  0.15703337    -0.20400
C15         C  0.76066907  0.25981001  0.34288156    -0.20400
C16         C  0.74262713  0.24526959  0.34276822    -0.20400
C17         C  0.80188295  0.30579417  0.23466805    -0.21500
C18         C  0.80200787  0.30550012  0.26589083    -0.21500
C19         C  0.69213891  0.21833362  0.23383933    -0.21500
C20         C  0.69219308  0.21814012  0.26511706    -0.21500
C21         C  0.78090028  0.28425517  0.19474954    -0.16800
C22         C  0.71668634  0.23237076  0.19438145    -0.16800
C23         C  0.71685236  0.23180050  0.30490194    -0.16800
C24         C  0.78121544  0.28339963  0.30509651    -0.16800
H25         H  0.76979577  0.26461396  0.13776804     0.16100
H26         H  0.73543307  0.23648183  0.13791155     0.16100
H27         H  0.77006494  0.26411540  0.36222405     0.16100
H28         H  0.73560651  0.23625380  0.36188503     0.16100
H29         H  0.81283225  0.31611045  0.22050472     0.14400
H30         H  0.81306877  0.31557696  0.28036500     0.14400
H31         H  0.67998162  0.21099178  0.21933253     0.14400
H32         H  0.68009400  0.21063834  0.27945144     0.14400
H33         H  0.74629390  0.26305521  0.22414985     0.27600
H34         H  0.74647799  0.26248861  0.27536228     0.27600
N35         N  0.48903065  0.84698439  0.05826880    -0.25800
N36         N  0.48255090  0.83155856  0.04209219    -0.33700
C37         C  0.47982074  0.81750236  0.06051637     0.02500
C38         C  0.48491501  0.82436084  0.08984708     0.08500
C39         C  0.49074286  0.84317058  0.08755715    -0.04600
H40         H  0.47532992  0.80350463  0.05280841     0.09200
H41         H  0.49594832  0.85335246  0.10572521     0.10400
Cu42       Cu  0.48036031  0.83092922  0.99517231     0.44200
Cu43       Cu  0.49549039  0.87222653  0.03838488     0.42000
Cu44       Cu  0.49490280  0.87243616  0.45124951     0.43900
N45         N  0.48509801  0.83247188  0.44750063    -0.33200
N46         N  0.49080333  0.84784018  0.43144859    -0.27500
C47         C  0.49311853  0.84432320  0.40229208    -0.03600
C48         C  0.48849801  0.82579832  0.40011056     0.08600
C49         C  0.48357571  0.81884979  0.42927991     0.02400
H50         H  0.49762248  0.85441301  0.38406298     0.10100
H51         H  0.47960371  0.80497515  0.43698787     0.09200
N52         N  0.49644395  0.89362750  0.47877999    -0.34700
N53         N  0.49903658  0.89459377  0.01205049    -0.26800
C54         C  0.49952135  0.91008217  0.02232384    -0.02100
C55         C  0.50087108  0.92106312  0.99760063     0.06500
C56         C  0.49728601  0.90946857  0.46935163     0.04600
H57         H  0.49828225  0.91278887  0.04602812     0.09700
H58         H  0.49777414  0.91336356  0.44571846     0.08600
N59         N  0.35143415  0.83930710  0.44437279    -0.25800
N60         N  0.34203980  0.82386966  0.46039166    -0.33700
C61         C  0.33075668  0.80984753  0.44173767     0.02500
C62         C  0.33299329  0.81670778  0.41244081     0.08500
C63         C  0.34616846  0.83547638  0.41492906    -0.04600
H64         H  0.32113910  0.79581544  0.44916818     0.09200
H65         H  0.35152269  0.84558329  0.39671143     0.10400
Cu66       Cu  0.34346387  0.82264924  0.50717699     0.44200
Cu67       Cu  0.37083271  0.86473463  0.46411481     0.42000
Cu68       Cu  0.36987717  0.86936438  0.04772201     0.43900
N69         N  0.34074608  0.82890379  0.05303211    -0.33200
N70         N  0.35036250  0.84448332  0.06872888    -0.27500
C71         C  0.34557634  0.84085028  0.09836662    -0.03600
C72         C  0.33252042  0.82202847  0.10121113     0.08600
C73         C  0.32983565  0.81502983  0.07195957     0.02400
H74         H  0.35134004  0.85104259  0.11648882     0.10100
H75         H  0.32029782  0.80089405  0.06477211     0.09200
N76         N  0.38948175  0.89079269  0.02002503    -0.34700
N77         N  0.38959553  0.88767425  0.49033854    -0.26800
C78         C  0.40368949  0.90404793  0.48030609    -0.02100
C79         C  0.41307690  0.91520565  0.50525222     0.06500
C80         C  0.40410751  0.90701326  0.02957534     0.04600
H81         H  0.40710902  0.90737385  0.45654688     0.09700
H82         H  0.40706513  0.91110578  0.05322883     0.08600
N83         N  0.48786487  0.15647582  0.07040820    -0.25800
N84         N  0.48389886  0.16755132  0.05443313    -0.33700
C85         C  0.48161541  0.17892560  0.07322264     0.02500
C86         C  0.48440245  0.17504964  0.10266261     0.08500
C87         C  0.48847974  0.16079389  0.10018118    -0.04600
H88         H  0.47889246  0.18978052  0.06583923     0.09200
H89         H  0.49167173  0.15412486  0.11854948     0.10400
Cu90       Cu  0.48387743  0.16860573  0.00785670     0.44200
Cu91       Cu  0.49204053  0.13630241  0.04928153     0.42000
Cu92       Cu  0.49183743  0.13717861  0.46259521     0.43900
N93         N  0.48505751  0.16945744  0.45968879    -0.33200
N94         N  0.48885926  0.15852803  0.44312599    -0.27500
C95         C  0.49033583  0.16385081  0.41375475    -0.03600
C96         C  0.48716231  0.17874355  0.41200495     0.08600
C97         C  0.48392111  0.18187585  0.44160539     0.02400
H98         H  0.49336140  0.15730672  0.39510559     0.10100
H99         H  0.48140540  0.19272412  0.44964259     0.09200
N100        N  0.49358293  0.11724407  0.48938916    -0.34700
N101        N  0.49406327  0.11699929  0.02127891    -0.26800
C102        C  0.49446449  0.10171748  0.03049470    -0.02100
C103        C  0.49475005  0.09217795  0.50421931     0.06500
C104        C  0.49387291  0.10206813  0.47933269     0.04600
H105        H  0.49368851  0.09758722  0.05405040     0.09700
H106        H  0.49360871  0.09861026  0.45553760     0.08600
N107        N  0.64958128  0.16953055  0.06015752    -0.25800
N108        N  0.66022459  0.18465368  0.04409324    -0.33700
C109        C  0.67201453  0.19829516  0.06296254     0.02500
C110        C  0.66885188  0.19149670  0.09245491     0.08500
C111        C  0.65452472  0.17314867  0.08977008    -0.04600
H112        H  0.68273189  0.21191533  0.05553272     0.09200
H113        H  0.64823387  0.16312676  0.10795212     0.10400
Cu114      Cu  0.65996807  0.18549899  0.99685859     0.44200
Cu115      Cu  0.62915609  0.14471540  0.04011184     0.42000
Cu116      Cu  0.62976596  0.14016520  0.45534357     0.43900
N117        N  0.65978702  0.18046891  0.45192428    -0.33200
N118        N  0.65020480  0.16511245  0.43567316    -0.27500
C119        C  0.65589388  0.16889571  0.40644305    -0.03600
C120        C  0.66958001  0.18757664  0.40436565     0.08600
C121        C  0.67162546  0.19432378  0.43373977     0.02400
H122        H  0.65036503  0.15886533  0.38806763     0.07700
H123        H  0.68147400  0.20820173  0.44164583     0.09200
N124        N  0.60943060  0.11903626  0.48259870    -0.34700
N125        N  0.60968057  0.12234877  0.01366532    -0.26800
C126        C  0.59508550  0.10635797  0.02369241    -0.02100
C127        C  0.58390084  0.09335842  0.49809603     0.06500
C128        C  0.59433098  0.10321876  0.47296079     0.04600
H129        H  0.59148532  0.10330959  0.04744742     0.09700
H130        H  0.59129728  0.09919634  0.44929417     0.08600
C131        C  0.47978259  0.98860780  0.50338135     0.03700
C132        C  0.49702255  0.98904945  0.50083817     0.03700
C133        C  0.51369805  0.00626585  0.50043793    -0.16800
C134        C  0.51366689  0.02314973  0.50164017     0.03700
C135        C  0.49646477  0.02285997  0.50349237     0.03700
C136        C  0.47972340  0.00554620  0.50431181    -0.16800
H137        H  0.46655694  0.00525649  0.50614985     0.05800
H138        H  0.52685716  0.00653690  0.49849673     0.05800
N139        N  0.25170521  0.50485674  0.29237211    -0.35100
N140        N  0.22905074  0.50912141  0.24560558    -0.55700
N141        N  0.25243705  0.50609178  0.20009075    -0.35100
N142        N  0.27614311  0.50378129  0.24688221    -0.55700
C143        C  0.24183158  0.51064979  0.30886426     0.28400
C144        C  0.26662493  0.50792167  0.30949590     0.28400
C145        C  0.24251010  0.51161166  0.18282014     0.28400
C146        C  0.26733549  0.50892080  0.18353966     0.28400
C147        C  0.21801970  0.50592077  0.27001935     0.37100
C148        C  0.21833437  0.50646819  0.22070565     0.37100
C149        C  0.28245435  0.49879553  0.27148746     0.37100
C150        C  0.28279827  0.49934137  0.22230421     0.37100
C151        C  0.25064199  0.51759650  0.33664130    -0.20400
C152        C  0.26630368  0.51588359  0.33703111    -0.20400
C153        C  0.25129712  0.51816343  0.15506388    -0.20400
C154        C  0.26695030  0.51642823  0.15549836    -0.20400
C155        C  0.20023561  0.50133674  0.26063877    -0.21500
C156        C  0.20042818  0.50166962  0.22934010    -0.21500
C157        C  0.29322596  0.49119894  0.26253988    -0.21500
C158        C  0.29348913  0.49159665  0.23127696    -0.21500
C159        C  0.22424518  0.50826086  0.30056333    -0.16800
C160        C  0.27965210  0.50235041  0.30179468    -0.16800
C161        C  0.28024835  0.50328921  0.19202299    -0.16800
C162        C  0.22487503  0.50923902  0.19042801    -0.16800
H163        H  0.24607546  0.52304685  0.35494301     0.16100
H164        H  0.27617296  0.51977373  0.35566648     0.16100
H165        H  0.24667753  0.52327118  0.13618816     0.16100
H166        H  0.27672819  0.51992464  0.13702609     0.16100
H167        H  0.18839402  0.49817660  0.27483238     0.14400
H168        H  0.18873890  0.49876370  0.21467827     0.14400
H169        H  0.30031619  0.48610470  0.27698636     0.14400
H170        H  0.30082224  0.48687079  0.21683697     0.14400
H171        H  0.24719341  0.49703500  0.27243767     0.27600
H172        H  0.24796779  0.49848283  0.22015189     0.27600
N173        N  0.25884249  0.74352692  0.30073136    -0.35100
N174        N  0.28286947  0.77029562  0.25523911    -0.55700
N175        N  0.25817256  0.74577890  0.20786914    -0.35100
N176        N  0.23289235  0.72018244  0.25357441    -0.55700
C177        C  0.27012386  0.75825456  0.31858086     0.28400
C178        C  0.24391519  0.73187446  0.31770403     0.28400
C179        C  0.26944418  0.76108002  0.19123188     0.28400
C180        C  0.24315743  0.73465744  0.19033278     0.28400
C181        C  0.29396244  0.77749621  0.28001578     0.37100
C182        C  0.29366374  0.77870964  0.23077540     0.37100
C183        C  0.22527356  0.70867685  0.27762651     0.37100
C184        C  0.22489691  0.70981925  0.22838496     0.37100
C185        C  0.26230078  0.75590061  0.34721870    -0.20400
C186        C  0.24577347  0.73927195  0.34666364    -0.20400
C187        C  0.26150978  0.75961639  0.16273798    -0.20400
C188        C  0.24494685  0.74296496  0.16216879    -0.20400
C189        C  0.31183248  0.79066840  0.27129834    -0.21500
C190        C  0.31164513  0.79143901  0.24006212    -0.21500
C191        C  0.21222186  0.69099566  0.26770802    -0.21500
C192        C  0.21196650  0.69172202  0.23649342    -0.21500
C193        C  0.28786931  0.77314354  0.31043556    -0.16800
C194        C  0.22925745  0.71418768  0.30844691    -0.16800
C195        C  0.22853820  0.71664525  0.19822263    -0.16800
C196        C  0.28727044  0.77571037  0.20028356    -0.16800
H197        H  0.26800353  0.76512237  0.36663913     0.16100
H198        H  0.23628177  0.73322987  0.36556614     0.16100
H199        H  0.26718219  0.76942480  0.14412084     0.16100
H200        H  0.23540705  0.73748674  0.14302765     0.16100
H201        H  0.32372315  0.79894530  0.28592100     0.14400
H202        H  0.32337721  0.80041199  0.22584129     0.14400
H203        H  0.20372498  0.67885082  0.28149616     0.14400
H204        H  0.20323814  0.68023148  0.22150972     0.14400
H205        H  0.26223553  0.74052026  0.27959091     0.27600
H206        H  0.26160193  0.74207382  0.22845311     0.27600
N207        N  0.16002041  0.51159981  0.05758791    -0.25800
N208        N  0.17104178  0.50779232  0.04137147    -0.33700
C209        C  0.18311986  0.50628694  0.05980829     0.02500
C210        C  0.17969451  0.50926184  0.08935681     0.08500
C211        C  0.16497092  0.51273417  0.08721397    -0.04600
H212        H  0.19383542  0.50349015  0.05208183     0.09200
H213        H  0.15815268  0.51547128  0.10575855     0.10400
Cu214      Cu  0.17145190  0.50707625  0.49652300     0.44200
Cu215      Cu  0.13861300  0.51391595  0.03671781     0.42000
Cu216      Cu  0.13886665  0.51357194  0.45322030     0.43900
N217        N  0.17230080  0.50874993  0.44975504    -0.33200
N218        N  0.16078239  0.51181094  0.43313568    -0.27500
C219        C  0.16554112  0.51267739  0.40356190    -0.03600
C220        C  0.18062149  0.50977204  0.40176879     0.08600
C221        C  0.18449023  0.50740202  0.43153529     0.02400
H222        H  0.15828886  0.51475275  0.38476358     0.10100
H223        H  0.19547728  0.50498961  0.43946410     0.09200
N224        N  0.11805148  0.51342732  0.48032681    -0.34700
N225        N  0.11731090  0.51193997  0.00858009    -0.26800
C226        C  0.10128271  0.51048191  0.01828791    -0.02100
C227        C  0.09135419  0.51122144  0.49528237     0.06500
C228        C  0.10169459  0.51135224  0.47039386     0.04600
H229        H  0.09807498  0.51101648  0.04196584     0.09700
H230        H  0.09743187  0.50944354  0.44673812     0.08600
N231        N  0.16309237  0.64923256  0.44030378    -0.25800
N232        N  0.17859458  0.65881759  0.45627132    -0.33700
C233        C  0.19248561  0.67006731  0.43769079     0.02500
C234        C  0.18552050  0.66760175  0.40836585     0.08500
C235        C  0.16675270  0.65430280  0.41082646    -0.04600
H236        H  0.20647849  0.67989691  0.44526832     0.09200
H237        H  0.15653422  0.64877550  0.39263300     0.10400
Cu238      Cu  0.18007776  0.65792856  0.50287483     0.44200
Cu239      Cu  0.13808199  0.63020576  0.46096519     0.42000
Cu240      Cu  0.13746575  0.63267237  0.04377617     0.43900
N241        N  0.17786569  0.66230060  0.04858366    -0.33200
N242        N  0.16237656  0.65257219  0.06425951    -0.27500
C243        C  0.16594153  0.65773519  0.09377001    -0.03600
C244        C  0.18462476  0.67121496  0.09664474     0.08600
C245        C  0.19165708  0.67372681  0.06748350     0.02400
H246        H  0.15575403  0.65199502  0.11177780     0.10100
H247        H  0.20568844  0.68353491  0.06031146     0.09200
N248        N  0.11530771  0.61303213  0.01721531    -0.34700
N249        N  0.11584364  0.61219554  0.48852871    -0.26800
C250        C  0.09940798  0.59797512  0.47894795    -0.02100
C251        C  0.08842649  0.58915716  0.50411756     0.06500
C252        C  0.09907435  0.59877642  0.02719052     0.04600
H253        H  0.09600575  0.59406662  0.45530502     0.09700
H254        H  0.09531123  0.59610760  0.05094495     0.08600
N255        N  0.85228601  0.34183506  0.06324793    -0.25800
N256        N  0.84182825  0.32590562  0.04883907    -0.33700
C257        C  0.82942308  0.31351686  0.06842448     0.02500
C258        C  0.83199185  0.32208681  0.09639198     0.08500
C259        C  0.84655824  0.34008600  0.09235121    -0.04600
H260        H  0.81872947  0.29953629  0.06239267     0.09200
H261        H  0.85242243  0.35110681  0.10915806     0.10400
Cu262      Cu  0.84459940  0.32211310  0.49843395     0.44200
Cu263      Cu  0.87323970  0.36513950  0.04168781     0.42000
Cu264      Cu  0.87133965  0.36566605  0.45876240     0.43900
N265        N  0.84278696  0.32511736  0.45168101    -0.33200
N266        N  0.85187216  0.34129075  0.43749261    -0.27500
C267        C  0.84609739  0.33907370  0.40830814    -0.03600
C268        C  0.83293340  0.32055146  0.40380999     0.08600
C269        C  0.83119355  0.31210405  0.43173986     0.02400
H270        H  0.85083921  0.35019254  0.39179126     0.10100
H271        H  0.82141544  0.29779546  0.43756730     0.09200
N272        N  0.89131630  0.38734277  0.48487799    -0.34700
N273        N  0.89226298  0.38632599  0.01393880    -0.26800
C274        C  0.90714456  0.40232264  0.02320362    -0.02100
C275        C  0.91593692  0.41391000  0.49945758     0.06500
C276        C  0.90531659  0.40366180  0.47471493     0.04600
H277        H  0.91116608  0.40585783  0.04679661     0.09700
H278        H  0.90759066  0.40769194  0.45100172     0.08600
N279        N  0.83862150  0.49225960  0.43826160    -0.25800
N280        N  0.82342276  0.48747491  0.45418677    -0.33700
C281        C  0.81016121  0.48685419  0.43576992     0.02500
C282        C  0.81730938  0.49151377  0.40671467     0.08500
C283        C  0.83542213  0.49489145  0.40908041    -0.04600
H284        H  0.79654964  0.48390108  0.44327913     0.09200
H285        H  0.84555070  0.49905696  0.39102901     0.10400
Cu286      Cu  0.82178313  0.48392643  0.50060310     0.44200
Cu287      Cu  0.86303872  0.49580426  0.45805216     0.42000
Cu288      Cu  0.86536228  0.49806429  0.04189609     0.43900
N289        N  0.82547531  0.48850712  0.04676987    -0.33200
N290        N  0.84076607  0.49349222  0.06286039    -0.27500
C291        C  0.83710061  0.49482874  0.09238831    -0.03600
C292        C  0.81854903  0.49030897  0.09468812     0.08600
C293        C  0.81177886  0.48648925  0.06519830     0.02400
H294        H  0.84713899  0.49873119  0.11074281     0.10100
H295        H  0.79804439  0.48312502  0.05738363     0.09200
N296        N  0.88679787  0.50025607  0.01391475    -0.34700
N297        N  0.88530722  0.49897347  0.48469581    -0.26800
C298        C  0.90152570  0.50103933  0.47459078    -0.02100
C299        C  0.91241245  0.50191375  0.49944938     0.06500
C300        C  0.90257115  0.50081760  0.02321189     0.04600
H301        H  0.90499139  0.50183374  0.45075540     0.09700
H302        H  0.90594273  0.50008484  0.04680812     0.08600
C303        C  0.01716383  0.52081378  0.50121952     0.03700
C304        C  0.01787219  0.50420444  0.49867987     0.03700
C305        C  0.00112894  0.48703674  0.49840613    -0.16800
C306        C  0.98370542  0.48611367  0.49993257     0.03700
C307        C  0.98310839  0.50287888  0.50174232     0.03700
C308        C  0.99986971  0.51998559  0.50261158    -0.16800
H309        H  0.99945982  0.53280570  0.50413079     0.05800
H310        H  0.00167580  0.47428913  0.49701930     0.05800
N311        N  0.49193944  0.25444313  0.30081563    -0.35100
N312        N  0.49012573  0.22848342  0.25537158    -0.55700
N313        N  0.48732709  0.25193279  0.20862417    -0.35100
N314        N  0.49137279  0.27907941  0.25423462    -0.55700
C315        C  0.49583876  0.24324642  0.31786912     0.28400
C316        C  0.49711165  0.27005348  0.31720542     0.28400
C317        C  0.49049255  0.24031215  0.19138782     0.28400
C318        C  0.49013392  0.26640784  0.19078653     0.28400
C319        C  0.48689256  0.21783402  0.28038516     0.37100
C320        C  0.48561968  0.21696881  0.23121800     0.37100
C321        C  0.48923704  0.28728294  0.27923819     0.37100
C322        C  0.48630429  0.28572080  0.23012505     0.37100
C323        C  0.50377047  0.25191484  0.34531669    -0.20400
C324        C  0.50456595  0.26885670  0.34490498    -0.20400
C325        C  0.49537196  0.24750359  0.16221310    -0.20400
C326        C  0.49511067  0.26394185  0.16181869    -0.20400
C327        C  0.48043715  0.19949441  0.27210733    -0.21500
C328        C  0.47972816  0.19896395  0.24086522    -0.21500
C329        C  0.48311631  0.29944076  0.27097352    -0.21500
C330        C  0.48123959  0.29843934  0.23981408    -0.21500
C331        C  0.49079231  0.22475719  0.31043573    -0.16800
C332        C  0.49322069  0.28425765  0.30932017    -0.16800
C333        C  0.48708663  0.28110330  0.19940273    -0.16800
C334        C  0.48763111  0.22270266  0.20057172    -0.16800
H335        H  0.50808548  0.24639533  0.36401105     0.16100
H336        H  0.50954636  0.27892169  0.36326869     0.16100
H337        H  0.49848446  0.24138116  0.14302206     0.16100
H338        H  0.49805129  0.27295017  0.14229893     0.16100
H339        H  0.47678814  0.18776661  0.28697388     0.14400
H340        H  0.47535246  0.18673123  0.22686603     0.14400
H341        H  0.48023940  0.30807145  0.28582519     0.14400
H342        H  0.47664373  0.30616683  0.22590626     0.14400
H343        H  0.48366545  0.25048129  0.28132701     0.27600
H344        H  0.48132610  0.24901716  0.23007351     0.27600
N345        N  0.75023321  0.50186584  0.29466761    -0.35100
N346        N  0.77296216  0.49783577  0.24906189    -0.55700
N347        N  0.74731235  0.49684632  0.20292954    -0.35100
N348        N  0.72554647  0.50280370  0.24863136    -0.55700
C349        C  0.76523787  0.50509957  0.31156349     0.28400
C350        C  0.74027670  0.50743815  0.31134874     0.28400
C351        C  0.76190774  0.49936072  0.18577802     0.28400
C352        C  0.73697761  0.50189534  0.18571362     0.28400
C353        C  0.78037313  0.49460134  0.27417486     0.37100
C354        C  0.77896360  0.49218410  0.22507192     0.37100
C355        C  0.71521845  0.50044516  0.27367065     0.37100
C356        C  0.71382021  0.49808527  0.22456176     0.37100
C357        C  0.76492498  0.51299296  0.33919802    -0.20400
C358        C  0.74916898  0.51450420  0.33904095    -0.20400
C359        C  0.76089424  0.50619097  0.15743098    -0.20400
C360        C  0.74520038  0.50785049  0.15742553    -0.20400
C361        C  0.79130744  0.48702399  0.26614030    -0.21500
C362        C  0.79039383  0.48546490  0.23493167    -0.21500
C363        C  0.69690397  0.49442823  0.26551547    -0.21500
C364        C  0.69599003  0.49284248  0.23434139    -0.21500
C365        C  0.77801992  0.49923880  0.30405324    -0.16800
C366        C  0.72234166  0.50423732  0.30366630    -0.16800
C367        C  0.71938996  0.49946210  0.19389387    -0.16800
C368        C  0.77538538  0.49447078  0.19438452    -0.16800
H369        H  0.77473972  0.51675615  0.35789315     0.16100
H370        H  0.74446365  0.51964297  0.35760786     0.16100
H371        H  0.77036120  0.50943433  0.13856110     0.16100
H372        H  0.74019082  0.51254399  0.13851017     0.16100
H373        H  0.79921129  0.48316390  0.28114819     0.14400
H374        H  0.79748529  0.48019395  0.22108298     0.14400
H375        H  0.68539121  0.49137906  0.28044971     0.14400
H376        H  0.68360300  0.48831596  0.22052834     0.14400
H377        H  0.74558492  0.49376538  0.27508491     0.27600
H378        H  0.74330299  0.48980364  0.22358131     0.27600
N379        N  0.48908158  0.75153043  0.29113448    -0.35100
N380        N  0.49062639  0.77733862  0.24482265    -0.55700
N381        N  0.48712835  0.75059661  0.19826503    -0.35100
N382        N  0.48806813  0.72602813  0.24470029    -0.55700
C383        C  0.49388885  0.76687820  0.30819715     0.28400
C384        C  0.49216180  0.73977529  0.30830800     0.28400
C385        C  0.49077764  0.76552820  0.18091290     0.28400
C386        C  0.48982629  0.73876956  0.18068984     0.28400
C387        C  0.48783089  0.78520483  0.26966100     0.37100
C388        C  0.48651183  0.78456899  0.22039797     0.37100
C389        C  0.48491882  0.71516133  0.26947385     0.37100
C390        C  0.48454888  0.71495748  0.22008176     0.37100
C391        C  0.50020605  0.76488744  0.33648474    -0.20400
C392        C  0.49907445  0.74778129  0.33658126    -0.20400
C393        C  0.49579833  0.76313008  0.15192756    -0.20400
C394        C  0.49515965  0.74625418  0.15176890    -0.20400
C395        C  0.48210100  0.79761406  0.26098583    -0.21500
C396        C  0.48126915  0.79721459  0.22973690    -0.21500
C397        C  0.47961450  0.69716626  0.26052736    -0.21500
C398        C  0.47946135  0.69705934  0.22924403    -0.21500
C399        C  0.49102479  0.78177894  0.29999389    -0.16800
C400        C  0.48763743  0.72148150  0.30001312    -0.16800
C401        C  0.48659738  0.72094491  0.18944449    -0.16800
C402        C  0.48825585  0.78053356  0.18975591    -0.16800
H403        H  0.50476673  0.77458517  0.35535781     0.16100
H404        H  0.50267737  0.74179489  0.35550705     0.16100
H405        H  0.49930542  0.77245670  0.13271179     0.16100
H406        H  0.49812405  0.74011786  0.13242795     0.16100
H407        H  0.47881052  0.80603215  0.27561598     0.14400
H408        H  0.47723428  0.80528585  0.21553049     0.14400
H409        H  0.47630042  0.68535431  0.27499125     0.14400
H410        H  0.47596765  0.68515134  0.21489898     0.14400
H411        H  0.48175585  0.74818267  0.27068549     0.27600
H412        H  0.48098948  0.74766584  0.21958891     0.27600
N413        N  0.34298260  0.49741508  0.06165373    -0.25800
N414        N  0.32769539  0.49228831  0.04547959    -0.33700
C415        C  0.31419451  0.49086428  0.06385836     0.02500
C416        C  0.32127881  0.49537973  0.09315851     0.08500
C417        C  0.33964593  0.49953136  0.09093088    -0.04600
H418        H  0.30048425  0.48764113  0.05613166     0.09200
H419        H  0.34986001  0.50389778  0.10909586     0.10400
Cu420      Cu  0.32798180  0.49192456  0.49660243     0.44200
Cu421      Cu  0.36743255  0.50178531  0.04172094     0.42000
Cu422      Cu  0.36943471  0.50482986  0.45425027     0.43900
N423        N  0.32930631  0.49419288  0.44987278    -0.33200
N424        N  0.34446282  0.49921656  0.43373080    -0.27500
C425        C  0.34061987  0.50048595  0.40422509    -0.03600
C426        C  0.32209918  0.49605832  0.40187252     0.08600
C427        C  0.31552118  0.49222374  0.43140139     0.02400
H428        H  0.35063167  0.50452134  0.38602679     0.10100
H429        H  0.30194568  0.48911101  0.43932648     0.09200
N430        N  0.39108733  0.50774944  0.48226221    -0.34700
N431        N  0.38937097  0.50494482  0.01502494    -0.26800
C432        C  0.40459139  0.50465273  0.02494228    -0.02100
C433        C  0.41714153  0.50888079  0.49802624     0.06500
C434        C  0.40687667  0.50861808  0.47277525     0.04600
H435        H  0.40698710  0.50247702  0.04843302     0.09700
H436        H  0.41042910  0.50882975  0.44908101     0.08600
N437        N  0.48766518  0.65600790  0.05676548    -0.25800
N438        N  0.48227468  0.66612866  0.04118478    -0.33700
C439        C  0.47989046  0.67734470  0.06025244     0.02500
C440        C  0.48408875  0.67438496  0.08945208     0.08500
C441        C  0.48909814  0.66079732  0.08647083    -0.04600
H442        H  0.47605599  0.68746645  0.05316116     0.09200
H443        H  0.49344260  0.65487052  0.10447883     0.10400
Cu444      Cu  0.48031299  0.66607948  0.99440580     0.44200
Cu445      Cu  0.49273599  0.63654208  0.03514814     0.42000
Cu446      Cu  0.49261378  0.63675456  0.45361877     0.43900
N447        N  0.47887324  0.66403964  0.44925093    -0.33200
N448        N  0.48556607  0.65520325  0.43343140    -0.27500
C449        C  0.48761671  0.66093036  0.40424127    -0.03600
C450        C  0.48193358  0.67403156  0.40157011     0.08600
C451        C  0.47647102  0.67556768  0.43067908     0.02400
H452        H  0.49308481  0.65608180  0.38641608     0.10100
H453        H  0.47197083  0.68507175  0.43822134     0.09200
N454        N  0.49811522  0.61917352  0.48031153    -0.34700
N455        N  0.49659395  0.61845019  0.00695076    -0.26800
C456        C  0.49818789  0.60385938  0.01619609    -0.02100
C457        C  0.50236567  0.59581761  0.49503443     0.06500
C458        C  0.50046149  0.60518275  0.47020173     0.04600
H459        H  0.49713715  0.59961889  0.03972039     0.09700
H460        H  0.50054020  0.60203928  0.44635895     0.08600
N461        N  0.48560732  0.34596849  0.06704632    -0.25800
N462        N  0.48046924  0.33074784  0.05082865    -0.33700
C463        C  0.47776914  0.31677815  0.06945764     0.02500
C464        C  0.48154719  0.32344749  0.09899334     0.08500
C465        C  0.48653392  0.34206963  0.09662439    -0.04600
H466        H  0.47434085  0.30303688  0.06181624     0.09200
H467        H  0.49079218  0.35209917  0.11495185     0.10400
Cu468      Cu  0.47995176  0.33011106  0.00385058     0.44200
Cu469      Cu  0.49157535  0.37121079  0.04691022     0.42000
Cu470      Cu  0.49386099  0.37126902  0.46296399     0.43900
N471        N  0.48229815  0.33099053  0.45803871    -0.33200
N472        N  0.48931590  0.34677435  0.44277538    -0.27500
C473        C  0.49286251  0.34381679  0.41405504    -0.03600
C474        C  0.48774776  0.32521206  0.41122557     0.08600
C475        C  0.48117263  0.31759285  0.43963686     0.02400
H476        H  0.49860870  0.35438662  0.39657077     0.10100
H477        H  0.47641087  0.30344490  0.44678251     0.09200
N478        N  0.49610926  0.39299141  0.48941639    -0.34700
N479        N  0.49540587  0.39360203  0.01975579    -0.26800
C480        C  0.49716968  0.40983924  0.02929735    -0.02100
C481        C  0.49858869  0.41989505  0.50298381     0.06500
C482        C  0.49887355  0.40936217  0.47877418     0.04600
H483        H  0.49681892  0.41332908  0.05290898     0.09700
H484        H  0.50089672  0.41320781  0.45498458     0.08600
N485        N  0.65891588  0.50534141  0.43745026    -0.25800
N486        N  0.66956840  0.50095829  0.45383298    -0.33700
C487        C  0.68221475  0.50034218  0.43580834     0.02500
C488        C  0.67941082  0.50441130  0.40642868     0.08500
C489        C  0.66458373  0.50765235  0.40826527    -0.04600
H490        H  0.69261447  0.49703398  0.44360576     0.09200
H491        H  0.65801675  0.51082823  0.38967861     0.10400
Cu492      Cu  0.66663780  0.49566461  0.49973154     0.44200
Cu493      Cu  0.63691251  0.50712484  0.45638832     0.42000
Cu494      Cu  0.63118586  0.50014242  0.04019823     0.43900
N495        N  0.66492433  0.49616763  0.04547462    -0.33200
N496        N  0.65208827  0.49717133  0.06160446    -0.27500
C497        C  0.65583335  0.49662955  0.09143732    -0.03600
C498        C  0.67168210  0.49500034  0.09373072     0.08600
C499        C  0.67698521  0.49477980  0.06413147     0.02400
H500        H  0.64780317  0.49756113  0.10995998     0.10100
H501        H  0.68921266  0.49444289  0.05663223     0.09200
N502        N  0.61320721  0.50421549  0.01185644    -0.34700
N503        N  0.61646513  0.50806140  0.48241255    -0.26800
C504        C  0.60177033  0.50920818  0.47197650    -0.02100
C505        C  0.59135289  0.50916686  0.49662927     0.06500
C506        C  0.59817846  0.50502972  0.02099497     0.04600
H507        H  0.59897650  0.51009012  0.44812924     0.09700
H508        H  0.59352551  0.50337394  0.04433834     0.08600
C509        C  0.50456223  0.52671187  0.49749149     0.03700
C510        C  0.48744305  0.50968115  0.49765039     0.03700
C511        C  0.48748238  0.49280949  0.49747147    -0.16800
C512        C  0.50418649  0.49242129  0.49750657     0.03700
C513        C  0.52138878  0.50939095  0.49735698     0.03700
C514        C  0.52134738  0.52635135  0.49760297    -0.16800
H515        H  0.53447646  0.53937112  0.49717070     0.05800
H516        H  0.47433037  0.47979956  0.49793350     0.05800
C517        C  0.56069141  0.50144254  0.47220066     0.25100
C518        C  0.57363547  0.50963869  0.49625903    -0.23000
C519        C  0.56915248  0.51861802  0.01866168     0.20000
C520        C  0.55266442  0.51937209  0.01867238     0.25000
C521        C  0.53950155  0.50972023  0.49661268    -0.23000
C522        C  0.54386094  0.50156750  0.47233439     0.19900
F523        F  0.53185323  0.49381301  0.44856403    -0.13000
F524        F  0.56400274  0.49279360  0.44890483    -0.15300
F525        F  0.54938011  0.52803855  0.04198766    -0.15300
F526        F  0.58165543  0.52703912  0.04161796    -0.13000
C527        C  0.50777873  0.45114911  0.52619401     0.25100
C528        C  0.50018359  0.43857971  0.50159391    -0.23000
C529        C  0.49174602  0.44375587  0.97946388     0.20000
C530        C  0.49326454  0.46128072  0.97829797     0.25000
C531        C  0.50313053  0.47403758  0.49876219    -0.23000
C532        C  0.50919876  0.46867739  0.52476403     0.19900
F533        F  0.51618522  0.48032593  0.54905012    -0.13000
F534        F  0.51415660  0.44667370  0.55149667    -0.15300
F535        F  0.48489463  0.46519099  0.95506279    -0.15300
F536        F  0.48135945  0.43103747  0.95782406    -0.13000
C537        C  0.51017919  0.55710567  0.01779209     0.25100
C538        C  0.50509293  0.54491683  0.49613468    -0.23000
C539        C  0.49801032  0.54957642  0.47058944     0.20000
C540        C  0.49720912  0.56604190  0.47006661     0.25000
C541        C  0.50384544  0.57852882  0.49498091    -0.23000
C542        C  0.50960471  0.57365289  0.01671331     0.19900
F543        F  0.51622484  0.58524784  0.04107194    -0.13000
F544        F  0.51628090  0.55274953  0.04356497    -0.15300
F545        F  0.48924143  0.56925161  0.44549390    -0.15300
F546        F  0.49161752  0.53799010  0.44615100    -0.13000
C547        C  0.43961058  0.50066989  0.47416934     0.25100
C548        C  0.43500348  0.50872545  0.49840786    -0.23000
C549        C  0.44601080  0.51386486  0.02542454     0.20000
C550        C  0.46331054  0.51475892  0.02467159     0.25000
C551        C  0.46927842  0.50909444  0.49827824    -0.23000
C552        C  0.45657553  0.50090165  0.47412900     0.19900
F553        F  0.46071650  0.49327360  0.45025102    -0.13000
F554        F  0.42753810  0.49207195  0.45077603    -0.15300
F555        F  0.47466420  0.52106386  0.04948795    -0.15300
F556        F  0.44143553  0.52001352  0.05072707    -0.13000
C557        C  0.46950786  0.69080709  0.37011410     0.25100
C558        C  0.48284869  0.68522131  0.37441632    -0.23000
C559        C  0.49738981  0.69103627  0.35314967     0.20000
C560        C  0.49878578  0.70252356  0.32866420     0.25000
C561        C  0.48568565  0.70838450  0.32491398    -0.23000
C562        C  0.47092429  0.70224839  0.34561525     0.19900
F563        F  0.45787129  0.70741534  0.34206477    -0.13000
F564        F  0.45489005  0.68498350  0.38936695    -0.15300
F565        F  0.51318872  0.70830720  0.30896515    -0.15300
F566        F  0.51075804  0.68631896  0.35671903    -0.13000
C567        C  0.46995746  0.69959289  0.14549219     0.25100
C568        C  0.48549491  0.70794555  0.16504974    -0.23000
C569        C  0.50013225  0.70426484  0.16082578     0.20000
C570        C  0.49932428  0.69253687  0.13716749     0.25000
C571        C  0.48405189  0.68469871  0.11693118    -0.23000
C572        C  0.46931574  0.68822034  0.12149893     0.19900
F573        F  0.45425560  0.68063399  0.10262151    -0.13000
F574        F  0.45549855  0.70266323  0.14944907    -0.15300
F575        F  0.51391678  0.68970265  0.13302578    -0.15300
F576        F  0.51547803  0.71257344  0.17900854    -0.13000
C577        C  0.68638699  0.50802292  0.14457537     0.25100
C578        C  0.68216147  0.49502336  0.12106152    -0.23000
C579        C  0.68970884  0.48318872  0.12215052     0.20000
C580        C  0.70138311  0.48439735  0.14612404     0.25000
C581        C  0.70622032  0.49783419  0.16913537    -0.23000
C582        C  0.69861198  0.50966550  0.16812834     0.19900
F583        F  0.70347095  0.52318039  0.18943895    -0.13000
F584        F  0.67956341  0.51984711  0.14382768    -0.15300
F585        F  0.70823744  0.47258798  0.14660738    -0.15300
F586        F  0.68580643  0.47041858  0.09984810    -0.13000
C587        C  0.70489921  0.51735393  0.33102725     0.25100
C588        C  0.71025147  0.50380892  0.32878600    -0.23000
C589        C  0.70474687  0.49010327  0.35136852     0.20000
C590        C  0.69454699  0.49023207  0.37635562     0.25000
C591        C  0.68943628  0.50396293  0.37906338    -0.23000
C592        C  0.69444320  0.51737173  0.35594774     0.19900
F593        F  0.68994108  0.53094561  0.35813865    -0.13000
F594        F  0.71026113  0.53082632  0.30953589    -0.15300
F595        F  0.68944464  0.47671487  0.39770662    -0.15300
F596        F  0.70945943  0.47666567  0.34929844    -0.13000
C597        C  0.47661067  0.28677305  0.35444903     0.25100
C598        C  0.49173525  0.29534370  0.33448182    -0.23000
C599        C  0.50542657  0.31402645  0.33917786     0.20000
C600        C  0.50407109  0.32396962  0.36385662     0.25000
C601        C  0.48898775  0.31528513  0.38415235    -0.23000
C602        C  0.47520145  0.29662934  0.37897456     0.19900
F603        F  0.46011527  0.28795969  0.39734608    -0.13000
F604        F  0.46318173  0.26874590  0.35014392    -0.15300
F605        F  0.51786575  0.34178963  0.36856014    -0.15300
F606        F  0.52029980  0.32243257  0.32031916    -0.13000
C607        C  0.46986949  0.28407482  0.15447574     0.25100
C608        C  0.48501003  0.29238126  0.17487348    -0.23000
C609        C  0.49846882  0.31124584  0.17118843     0.20000
C610        C  0.49700648  0.32157016  0.14716530     0.25000
C611        C  0.48214806  0.31313598  0.12618715    -0.23000
C612        C  0.46849685  0.29431592  0.13025535     0.19900
F613        F  0.45375367  0.28583895  0.11083920    -0.13000
F614        F  0.45651215  0.26595350  0.15789715    -0.15300
F615        F  0.51067925  0.33952408  0.14348910    -0.15300
F616        F  0.51336263  0.31948898  0.19033693    -0.13000
C617        C  0.78871128  0.48021277  0.37458572     0.25100
C618        C  0.80766382  0.49319640  0.37957676    -0.23000
C619        C  0.81701272  0.50809632  0.35912625     0.20000
C620        C  0.80748865  0.51000969  0.33421425     0.25000
C621        C  0.78860963  0.49694345  0.32930611    -0.23000
C622        C  0.77930872  0.48204396  0.34957151     0.19900
F623        F  0.76099564  0.46939517  0.34523953    -0.13000
F624        F  0.77930368  0.46561823  0.39375844    -0.15300
F625        F  0.81645918  0.52491159  0.31548142    -0.15300
F626        F  0.83507456  0.52127895  0.36408080    -0.13000
C627        C  0.78873120  0.47759426  0.12388011     0.25100
C628        C  0.80799865  0.49039160  0.12183449    -0.23000
C629        C  0.81662124  0.50392225  0.14481181     0.20000
C630        C  0.80607716  0.50503139  0.16866395     0.25000
C631        C  0.78679511  0.49255079  0.17014579    -0.23000
C632        C  0.77826841  0.47865334  0.14782281     0.19900
F633        F  0.75971815  0.46621789  0.14906056    -0.13000
F634        F  0.77996029  0.46396055  0.10272606    -0.15300
F635        F  0.81455724  0.51872030  0.18980683    -0.15300
F636        F  0.83503836  0.51672677  0.14337178    -0.13000
C637        C  0.93691973  0.49687323  0.47416040     0.25100
C638        C  0.93099575  0.50302514  0.49945872    -0.23000
C639        C  0.94397232  0.51029300  0.02145368     0.20000
C640        C  0.96092645  0.51044489  0.02135242     0.25000
C641        C  0.96523645  0.50303825  0.50104850    -0.23000
C642        C  0.95383775  0.49694250  0.47500712     0.19900
F643        F  0.95921508  0.49116745  0.45015374    -0.13000
F644        F  0.92626510  0.49035134  0.44866153    -0.15300
F645        F  0.97275991  0.51804098  0.04538028    -0.15300
F646        F  0.94034687  0.51846665  0.04509982    -0.13000
C647        C  0.93705154  0.44503017  0.52338067     0.25100
C648        C  0.93318072  0.43244312  0.49926630    -0.23000
C649        C  0.94645919  0.43636244  0.97362665     0.20000
C650        C  0.96270550  0.45383835  0.97350858     0.25000
C651        C  0.96637632  0.46752690  0.49985991    -0.23000
C652        C  0.95354762  0.46226982  0.52383790     0.19900
F653        F  0.95715999  0.47368968  0.54812120    -0.13000
F654        F  0.92469294  0.44082369  0.54633956    -0.15300
F655        F  0.97495325  0.45824459  0.95029874    -0.15300
F656        F  0.94381086  0.42413833  0.95101394    -0.13000
C657        C  0.05752769  0.56707937  0.97720378     0.25100
C658        C  0.06947116  0.57230676  0.50437854    -0.23000
C659        C  0.06347047  0.55998362  0.52939365     0.20000
C660        C  0.04609777  0.54366669  0.52878734     0.25000
C661        C  0.03447284  0.53914332  0.50313599    -0.23000
C662        C  0.04029155  0.55054110  0.97662852     0.19900
F663        F  0.02900702  0.54656289  0.95189145    -0.13000
F664        F  0.06199505  0.57898178  0.95340110    -0.15300
F665        F  0.04070177  0.53203195  0.55311253    -0.15300
F666        F  0.07463401  0.56318271  0.55402052    -0.13000
C667        C  0.05872538  0.49650858  0.01763221     0.25100
C668        C  0.07212828  0.50861008  0.49539627    -0.23000
C669        C  0.06545494  0.51447838  0.47056577     0.20000
C670        C  0.04763856  0.51252242  0.47123657     0.25000
C671        C  0.03605606  0.50466612  0.49665134    -0.23000
C672        C  0.04120916  0.49514552  0.01852973     0.19900
F673        F  0.02996433  0.48686598  0.04277723    -0.13000
F674        F  0.06354550  0.48865285  0.04043150    -0.15300
F675        F  0.04172333  0.51846471  0.44708772    -0.15300
F676        F  0.07634789  0.52270676  0.44596548    -0.13000
C677        C  0.21366474  0.68568593  0.12839823     0.25100
C678        C  0.19510997  0.68147983  0.12421642    -0.23000
C679        C  0.18723180  0.68815636  0.14551518     0.20000
C680        C  0.19802723  0.69955191  0.16970354     0.25000
C681        C  0.21670686  0.70412009  0.17324024    -0.23000
C682        C  0.22430187  0.69680016  0.15277991     0.19900
F683        F  0.24211139  0.70051451  0.15643659    -0.13000
F684        F  0.22148031  0.67886599  0.10900894    -0.15300
F685        F  0.19042767  0.70650756  0.18926707    -0.15300
F686        F  0.16939222  0.68438536  0.14214885    -0.13000
C687        C  0.22531131  0.69402580  0.35349593     0.25100
C688        C  0.21743418  0.70094643  0.33254197    -0.23000
C689        C  0.19861624  0.69590696  0.33549469     0.20000
C690        C  0.18796142  0.68449245  0.35954212     0.25000
C691        C  0.19603923  0.67809597  0.38117398    -0.23000
C692        C  0.21477483  0.68282263  0.37769897     0.19900
F693        F  0.22291826  0.67654876  0.39771202    -0.13000
F694        F  0.24333922  0.69835318  0.35066984    -0.15300
F695        F  0.17007707  0.68056168  0.36257146    -0.15300
F696        F  0.19075257  0.70253504  0.31560082    -0.13000
C697        C  0.32047012  0.51129281  0.14130804     0.25100
C698        C  0.31136909  0.49672217  0.12005375    -0.23000
C699        C  0.29224961  0.48393798  0.12360931     0.20000
C700        C  0.28227708  0.48606134  0.14719762     0.25000
C701        C  0.29121775  0.50092092  0.16772825    -0.23000
C702        C  0.31042181  0.51338227  0.16497341     0.19900
F703        F  0.31928920  0.52780651  0.18476651    -0.13000
F704        F  0.33885072  0.52398681  0.13842966    -0.15300
F705        F  0.26382008  0.47361047  0.15005974    -0.15300
F706        F  0.28322041  0.46922015  0.10441961    -0.13000
C707        C  0.29206461  0.48535594  0.37350377     0.25100
C708        C  0.31161799  0.49676561  0.37480539    -0.23000
C709        C  0.32068704  0.50955681  0.35105832     0.20000
C710        C  0.31035096  0.51136261  0.32729277     0.25000
C711        C  0.29081968  0.50027868  0.32659616    -0.23000
C712        C  0.28181279  0.48716419  0.34974959     0.19900
F713        F  0.26298672  0.47610221  0.34938308    -0.13000
F714        F  0.28276675  0.47221878  0.39504978    -0.15300
F715        F  0.31936761  0.52429475  0.30532858    -0.15300
F716        F  0.33945463  0.52090989  0.35138700    -0.13000
C717        C  0.20575630  0.49435992  0.34793599     0.25100
C718        C  0.21192262  0.50810305  0.32526119    -0.23000
C719        C  0.20689229  0.52192897  0.32694719     0.20000
C720        C  0.19606931  0.52213283  0.35121369     0.25000
C721        C  0.19044746  0.50872275  0.37444412    -0.23000
C722        C  0.19524360  0.49473330  0.37237006     0.19900
F723        F  0.18959298  0.48126816  0.39393739    -0.13000
F724        F  0.21011441  0.48064789  0.34652137    -0.15300
F725        F  0.19188047  0.53594701  0.35277544    -0.15300
F726        F  0.21297949  0.53555167  0.30559956    -0.13000
C727        C  0.20674105  0.49542736  0.14237320     0.25100
C728        C  0.21258735  0.50903245  0.16528499    -0.23000
C729        C  0.20683688  0.52234956  0.16385731     0.20000
C730        C  0.19550484  0.52208782  0.13977412     0.25000
C731        C  0.18996760  0.50864280  0.11659473    -0.23000
C732        C  0.19555954  0.49522066  0.11832936     0.19900
F733        F  0.19006811  0.48173264  0.09678358    -0.13000
F734        F  0.21201548  0.48236941  0.14317914    -0.15300
F735        F  0.19073201  0.53549852  0.13833448    -0.15300
F736        F  0.21263249  0.53589504  0.18534216    -0.13000
C737        C  0.54700753  0.04744691  0.02469841     0.25100
C738        C  0.53181396  0.04088443  0.50025299    -0.23000
C739        C  0.53643741  0.05260393  0.47480171     0.20000
C740        C  0.55332492  0.06955116  0.47394691     0.25000
C741        C  0.56600845  0.07516177  0.49862995    -0.23000
C742        C  0.56376865  0.06451674  0.02401522     0.19900
F743        F  0.57580436  0.06897910  0.04779460    -0.13000
F744        F  0.54303002  0.03630327  0.04947450    -0.15300
F745        F  0.55691337  0.08065974  0.44926181    -0.15300
F746        F  0.52455994  0.04758222  0.45067858    -0.13000
C747        C  0.50043383  0.20485889  0.17371294     0.25100
C748        C  0.48634764  0.20945226  0.17671728    -0.23000
C749        C  0.47097614  0.20146796  0.15685698     0.20000
C750        C  0.47001217  0.18960889  0.13353777     0.25000
C751        C  0.48432781  0.18538668  0.12989539    -0.23000
C752        C  0.49938093  0.19279936  0.15052257     0.19900
F753        F  0.51356012  0.18924702  0.14714241    -0.13000
F754        F  0.51546449  0.21254659  0.19263828    -0.15300
F755        F  0.45510315  0.18229071  0.11434980    -0.15300
F756        F  0.45701375  0.20537607  0.15990600    -0.13000
C757        C  0.47560819  0.20703225  0.35775590     0.25100
C758        C  0.48941923  0.21215042  0.33555157    -0.23000
C759        C  0.50212426  0.20570539  0.33787689     0.20000
C760        C  0.50112787  0.19438788  0.36230544     0.25000
C761        C  0.48753435  0.18956516  0.38494730    -0.23000
C762        C  0.47473665  0.19595062  0.38234612     0.19900
F763        F  0.46121972  0.19130864  0.40345250    -0.13000
F764        F  0.46300981  0.21288509  0.35562563    -0.15300
F765        F  0.51399987  0.18891547  0.36456741    -0.15300
F766        F  0.51577323  0.21080058  0.31687736    -0.13000
C767        C  0.50463747  0.05368475  0.52755509     0.25100
C768        C  0.49567723  0.04044047  0.50428184    -0.23000
C769        C  0.48905624  0.04559512  0.97911484     0.20000
C770        C  0.48828648  0.06208980  0.97982190     0.25000
C771        C  0.49507545  0.07435605  0.50419047    -0.23000
C772        C  0.50448453  0.07049311  0.52737926     0.19900
F773        F  0.51400086  0.08317549  0.54956799    -0.13000
F774        F  0.51346714  0.05031603  0.55068610    -0.15300
F775        F  0.47931023  0.06540016  0.95685819    -0.15300
F776        F  0.48133799  0.03379410  0.95515358    -0.13000
C777        C  0.30386409  0.80304568  0.34009240     0.25100
C778        C  0.30053491  0.78490561  0.33531567    -0.23000
C779        C  0.30853471  0.77757412  0.35521139     0.20000
C780        C  0.31941081  0.78808117  0.37993965     0.25000
C781        C  0.32258458  0.80617519  0.38504555    -0.23000
C782        C  0.31487881  0.81364714  0.36470882     0.19900
F783        F  0.31717519  0.83081035  0.36959067    -0.13000
F784        F  0.29588636  0.81020079  0.32150379    -0.15300
F785        F  0.32694025  0.78060192  0.39881461    -0.15300
F786        F  0.30557450  0.76011119  0.35082996    -0.13000
C787        C  0.31961365  0.79302436  0.13246094     0.25100
C788        C  0.32273206  0.81121316  0.12870562    -0.23000
C789        C  0.31506010  0.81814722  0.14991453     0.20000
C790        C  0.30361377  0.80669315  0.17338731     0.25000
C791        C  0.30001257  0.78831095  0.17631983    -0.23000
C792        C  0.30846582  0.78174890  0.15614612     0.19900
F793        F  0.30577156  0.76430412  0.15932616    -0.13000
F794        F  0.32743627  0.78615511  0.11318051    -0.15300
F795        F  0.29559120  0.81331913  0.19272205    -0.15300
F796        F  0.31784581  0.83563619  0.14701523    -0.13000
C797        C  0.43264219  0.94709714  0.48185293     0.25100
C798        C  0.42978158  0.93434003  0.50536011    -0.23000
C799        C  0.44435827  0.94196932  0.02842613     0.20000
C800        C  0.46058012  0.95952688  0.02790395     0.25000
C801        C  0.46184706  0.97051456  0.50531475    -0.23000
C802        C  0.44840797  0.96502185  0.48200781     0.19900
F803        F  0.45091813  0.97681150  0.45871925    -0.13000
F804        F  0.42012460  0.94232883  0.45873706    -0.15300
F805        F  0.47278024  0.96468547  0.05159776    -0.15300
F806        F  0.44170849  0.93059596  0.05241015    -0.13000
C807        C  0.50090035  0.81109966  0.16212523     0.25100
C808        C  0.48699241  0.79234383  0.16536812    -0.23000
C809        C  0.47194797  0.78458144  0.14481627     0.20000
C810        C  0.47107124  0.79516780  0.12078885     0.25000
C811        C  0.48520750  0.81380371  0.11690406    -0.23000
C812        C  0.49998491  0.82179023  0.13814776     0.19900
F813        F  0.51399783  0.83964237  0.13492444    -0.13000
F814        F  0.51562452  0.81887219  0.18167789    -0.15300
F815        F  0.45624947  0.78720534  0.10146435    -0.15300
F816        F  0.45815514  0.76661787  0.14794639    -0.13000
C817        C  0.50382919  0.81259005  0.32743313     0.25100
C818        C  0.49026845  0.79362729  0.32478566    -0.23000
C819        C  0.47576967  0.78571366  0.34602391     0.20000
C820        C  0.47496534  0.79637924  0.36985163     0.25000
C821        C  0.48874030  0.81522640  0.37312520    -0.23000
C822        C  0.50307631  0.82333056  0.35145088     0.19900
F823        F  0.51678579  0.84136827  0.35425496    -0.13000
F824        F  0.51801334  0.82055079  0.30719240    -0.15300
F825        F  0.46049810  0.78826832  0.38955233    -0.15300
F826        F  0.46234360  0.76753756  0.34365355    -0.13000
C827        C  0.51006149  0.95194382  0.02161489     0.25100
C828        C  0.49787171  0.93759160  0.49556452    -0.23000
C829        C  0.48902642  0.94233131  0.47265075     0.20000
C830        C  0.48920169  0.95926339  0.47387931     0.25000
C831        C  0.49792432  0.97165404  0.49828175    -0.23000
C832        C  0.50997330  0.96875284  0.02214133     0.19900
F833        F  0.51866562  0.98088625  0.04539174    -0.13000
F834        F  0.51929130  0.94850861  0.04400169    -0.15300
F835        F  0.48080795  0.96355964  0.45120366    -0.15300
F836        F  0.47963267  0.93033584  0.44956716    -0.13000
C837        C  0.79754030  0.31183947  0.15991277     0.25100
C838        C  0.79502010  0.29480960  0.17088864    -0.23000
C839        C  0.80585270  0.28769948  0.15890194     0.20000
C840        C  0.81823213  0.29689575  0.13510535     0.25000
C841        C  0.82049170  0.31369819  0.12367147    -0.23000
C842        C  0.81042535  0.32138777  0.13674461     0.19900
F843        F  0.81236734  0.33761173  0.12602914    -0.13000
F844        F  0.78721261  0.31895566  0.17120450    -0.15300
F845        F  0.82799706  0.28936139  0.12304308    -0.15300
F846        F  0.80402804  0.27155891  0.16975835    -0.13000
C847        C  0.81112104  0.31989084  0.36368791     0.25100
C848        C  0.82111529  0.31201078  0.37667059    -0.23000
C849        C  0.81873376  0.29523390  0.36486756     0.20000
C850        C  0.80612143  0.28617668  0.34101591     0.25000
C851        C  0.79547640  0.29360234  0.32907899    -0.23000
C852        C  0.79820087  0.31060964  0.34031617     0.19900
F853        F  0.78803132  0.31798007  0.32902830    -0.13000
F854        F  0.81320189  0.33610869  0.37462810    -0.15300
F855        F  0.80388102  0.26989547  0.33005961    -0.15300
F856        F  0.82869549  0.28769143  0.37637877    -0.13000
C857        C  0.68568502  0.21727067  0.37442128     0.25100
C858        C  0.68039284  0.19833905  0.37737844    -0.23000
C859        C  0.68644478  0.19027358  0.35532702     0.20000
C860        C  0.69795762  0.20105809  0.33140745     0.25000
C861        C  0.70348723  0.22001046  0.32895863    -0.23000
C862        C  0.69709741  0.22796796  0.35045954     0.19900
F863        F  0.70217681  0.24622514  0.34846360    -0.13000
F864        F  0.67971658  0.22545957  0.39466022    -0.15300
F865        F  0.70429556  0.19319833  0.31119023    -0.15300
F866        F  0.68204302  0.17222910  0.35774406    -0.13000
C867        C  0.68482361  0.19236229  0.14191869     0.25100
C868        C  0.67971718  0.20147651  0.12008273    -0.23000
C869        C  0.68593470  0.22054852  0.12403785     0.20000
C870        C  0.69743955  0.23038589  0.14871731     0.25000
C871        C  0.70305577  0.22141495  0.16982232    -0.23000
C872        C  0.69643393  0.20227148  0.16652095     0.19900
F873        F  0.70171884  0.19332626  0.18663174    -0.13000
F874        F  0.67939740  0.17408796  0.13864191    -0.15300
F875        F  0.70332858  0.24878234  0.15189640    -0.15300
F876        F  0.68076906  0.22967606  0.10410683    -0.13000
N877        N  0.75508929  0.24963612  0.70126135    -0.35100
N878        N  0.78167439  0.27203705  0.74870794    -0.55700
N879        N  0.75371739  0.25029035  0.79493300    -0.35100
N880        N  0.72657719  0.22925292  0.74748742    -0.55700
C881        C  0.76889916  0.26283692  0.68393356     0.28400
C882        C  0.73989391  0.24014066  0.68312593     0.28400
C883        C  0.76721385  0.26373816  0.81250748     0.28400
C884        C  0.73803645  0.24153789  0.81192521     0.28400
C885        C  0.79321848  0.27830338  0.72447536     0.37100
C886        C  0.79261808  0.27819772  0.77386471     0.37100
C887        C  0.71687181  0.21963548  0.72255317     0.37100
C888        C  0.71612162  0.22015002  0.77200850     0.37100
C889        C  0.76245175  0.26149821  0.65431686    -0.20400
C890        C  0.74430834  0.24713802  0.65372930    -0.20400
C891        C  0.76007413  0.26342542  0.84110909    -0.20400
C892        C  0.74176711  0.24940119  0.84081257    -0.20400
C893        C  0.81156090  0.28860085  0.73430409    -0.21500
C894        C  0.81118203  0.28851849  0.76556865    -0.21500
C895        C  0.69999548  0.20454536  0.73132100    -0.21500
C896        C  0.69953140  0.20486561  0.76254865    -0.21500
C897        C  0.78744278  0.27551946  0.69357421    -0.16800
C898        C  0.72235058  0.22490187  0.69190367    -0.16800
C899        C  0.72076819  0.22600121  0.80272559    -0.16800
C900        C  0.78608938  0.27560778  0.80418886    -0.16800
H901        H  0.77006494  0.26988106  0.63494461     0.16100
H902        H  0.73545948  0.24242069  0.63371212     0.16100
H903        H  0.76735917  0.27223695  0.86041243     0.16100
H904        H  0.73239308  0.24540252  0.85994712     0.16100
H905        H  0.82393615  0.29547749  0.72040717     0.14400
H906        H  0.82320132  0.29539273  0.78048719     0.14400
H907        H  0.68897731  0.19448319  0.71676953     0.14400
H908        H  0.68810810  0.19511123  0.77660118     0.14400
H909        H  0.75647436  0.24610116  0.72334884     0.27600
H910        H  0.75573905  0.24599112  0.77388393     0.27600
N911        N  0.48836757  0.84683122  0.55648173    -0.25800
N912        N  0.48264869  0.83140138  0.54061744    -0.33700
C913        C  0.48018056  0.81760860  0.55940749     0.02500
C914        C  0.48469475  0.82468215  0.58862650     0.08500
C915        C  0.48991035  0.84331243  0.58599999    -0.04600
H916        H  0.47614223  0.80364109  0.55211667     0.09200
H917        H  0.49449298  0.85351671  0.60410458     0.10400
Cu918      Cu  0.48087081  0.83043663  0.49383076     0.44200
Cu919      Cu  0.49369334  0.87146560  0.53568149     0.42000
Cu920      Cu  0.49844319  0.87412989  0.95439223     0.43900
N921        N  0.48510061  0.83338375  0.94881171    -0.33200
N922        N  0.49242329  0.84920094  0.93357052    -0.27500
C923        C  0.49475928  0.84585872  0.90433266    -0.03600
C924        C  0.48848606  0.82696331  0.90113007     0.08600
C925        C  0.48256877  0.81963401  0.92992531     0.02400
H926        H  0.50041758  0.85636391  0.88674310     0.10100
H927        H  0.47735720  0.80540300  0.93703942     0.09200
N928        N  0.50008938  0.89528654  0.98196810    -0.34700
N929        N  0.49606105  0.89319076  0.50891352    -0.26800
C930        C  0.49665067  0.90868557  0.51932313    -0.02100
C931        C  0.49744929  0.91950016  0.49470491     0.06500
C932        C  0.50122084  0.91121706  0.97241084     0.04600
H933        H  0.49598181  0.91155035  0.54315288     0.09700
H934        H  0.50207995  0.91522322  0.94876731     0.08600
N935        N  0.35099709  0.84217532  0.94296949    -0.25800
N936        N  0.34129548  0.82699690  0.95942803    -0.33700
C937        C  0.33012229  0.81272223  0.94109403     0.02500
C938        C  0.33261700  0.81913072  0.91149496     0.08500
C939        C  0.34591462  0.83793612  0.91346875    -0.04600
H940        H  0.32018386  0.79888983  0.94894308     0.09200
H941        H  0.35130511  0.84780200  0.89491186     0.10400
Cu942      Cu  0.34178325  0.82680079  0.00637879     0.44200
Cu943      Cu  0.37041325  0.86760138  0.96317429     0.42000
Cu944      Cu  0.37093063  0.86569297  0.54758677     0.43900
N945        N  0.34309486  0.82490422  0.55388472    -0.33200
N946        N  0.35239001  0.84073376  0.56903935    -0.27500
C947        C  0.34760019  0.83749604  0.59866618    -0.03600
C948        C  0.33484281  0.81867124  0.60215936     0.08600
C949        C  0.33237041  0.81121671  0.57324836     0.02400
H950        H  0.35293693  0.84804808  0.61626157     0.10100
H951        H  0.32280532  0.79700282  0.56647592     0.09200
N952        N  0.38956207  0.88792878  0.52046851    -0.34700
N953        N  0.38971599  0.89015318  0.98989732    -0.26800
C954        C  0.40451546  0.90596087  0.97970353    -0.02100
C955        C  0.41416280  0.91721789  0.00442418     0.06500
C956        C  0.40361679  0.90440966  0.53027371     0.04600
H957        H  0.40818620  0.90881718  0.95593704     0.09700
H958        H  0.40661410  0.90825495  0.55401684     0.08600
N959        N  0.48924423  0.15764895  0.56859763    -0.25800
N960        N  0.48455866  0.16829611  0.55295712    -0.33700
C961        C  0.48247954  0.17970919  0.57201027     0.02500
C962        C  0.48611160  0.17626797  0.60128804     0.08500
C963        C  0.49048325  0.16223158  0.59834705    -0.04600
H964        H  0.47917470  0.19020768  0.56488763     0.09200
H965        H  0.49418823  0.15579941  0.61642715     0.10400
Cu966      Cu  0.48274869  0.16817559  0.50628014     0.44200
Cu967      Cu  0.49321760  0.13746447  0.54711569     0.42000
Cu968      Cu  0.49436537  0.13862213  0.96491998     0.43900
N969        N  0.48828729  0.17129283  0.96182946    -0.33200
N970        N  0.49249092  0.16061349  0.94542425    -0.27500
C971        C  0.49466896  0.16637505  0.91621895    -0.03600
C972        C  0.49152975  0.18129826  0.91443154     0.08600
C973        C  0.48764127  0.18401909  0.94387316     0.02400
H974        H  0.49783605  0.15991350  0.89761731     0.10100
H975        H  0.48465509  0.19456326  0.95183971     0.09200
N976        N  0.49478410  0.11777508  0.99115907    -0.34700
N977        N  0.49422546  0.11746363  0.51953533    -0.26800
C978        C  0.49495642  0.10245499  0.52927734    -0.02100
C979        C  0.49547672  0.09232004  0.00509335     0.06500
C980        C  0.49564083  0.10299969  0.98059445     0.04600
H981        H  0.49512214  0.09905278  0.55301476     0.09700
H982        H  0.49657013  0.10040206  0.95672937     0.08600
N983        N  0.65032643  0.16496603  0.56076166    -0.25800
N984        N  0.66028204  0.18050276  0.54529299    -0.33700
C985        C  0.67300470  0.19360801  0.56388394     0.02500
C986        C  0.67119589  0.18595062  0.59249876     0.08500
C987        C  0.65670543  0.16770616  0.58972625    -0.04600
H988        H  0.68344849  0.20741471  0.55671183     0.09200
H989        H  0.65135744  0.15719138  0.60732736     0.10400
Cu990      Cu  0.65817003  0.18210978  0.49863355     0.44200
Cu991      Cu  0.62915191  0.14106640  0.53984617     0.42000
Cu992      Cu  0.62933637  0.14335704  0.95635156     0.43900
N993        N  0.66123999  0.18251066  0.95015814    -0.33200
N994        N  0.65056237  0.16684794  0.93520333    -0.27500
C995        C  0.65612186  0.16905250  0.90592887    -0.03600
C996        C  0.67082455  0.18706274  0.90236308     0.08600
C997        C  0.67364985  0.19515019  0.93082994     0.02400
H998        H  0.64997427  0.15836389  0.88860461     0.07700
H999        H  0.68439402  0.20902817  0.93726489     0.09200
N1000       N  0.60982355  0.12194984  0.98355804    -0.34700
N1001       N  0.60911770  0.11964625  0.51270666    -0.26800
C1002       C  0.59380672  0.10435321  0.52282573    -0.02100
C1003       C  0.58553344  0.09524620  0.99878073     0.06500
C1004       C  0.59541837  0.10571897  0.97375991     0.04600
H1005       H  0.59003622  0.10170690  0.54657807     0.09700
H1006       H  0.59257945  0.10184497  0.95001963     0.08600
C1007       C  0.48230278  0.98969795  0.00156025     0.03700
C1008       C  0.49963720  0.99020614  0.00083915     0.03700
C1009       C  0.51627854  0.00746090  0.00113866    -0.16800
C1010       C  0.51614218  0.02429555  0.00150354     0.03700
C1011       C  0.49884974  0.02390737  0.00166968     0.03700
C1012       C  0.48215375  0.00658177  0.00155174    -0.16800
H1013       H  0.46892395  0.00623703  0.00222313     0.05800
H1014       H  0.52950914  0.00780193  0.00033683     0.05800
N1015       N  0.25278378  0.50507852  0.79253556    -0.35100
N1016       N  0.23071159  0.51039977  0.74623360    -0.55700
N1017       N  0.25377351  0.50689431  0.70028569    -0.35100
N1018       N  0.27687428  0.50342416  0.74674449    -0.55700
C1019       C  0.24285441  0.51069196  0.80927246     0.28400
C1020       C  0.26762329  0.50794292  0.80964241     0.28400
C1021       C  0.24435139  0.51316809  0.68335396     0.28400
C1022       C  0.26828705  0.50895329  0.68342447     0.28400
C1023       C  0.21930328  0.50630329  0.77037910     0.37100
C1024       C  0.22020424  0.50809679  0.72122317     0.37100
C1025       C  0.28335733  0.49867768  0.77146004     0.37100
C1026       C  0.28338911  0.49882821  0.72210008     0.37100
C1027       C  0.25157121  0.51739619  0.83717711    -0.20400
C1028       C  0.26722874  0.51567081  0.83740902    -0.20400
C1029       C  0.25308066  0.51943789  0.65549861    -0.20400
C1030       C  0.26816386  0.51673751  0.65551035    -0.20400
C1031       C  0.20149289  0.50144135  0.76069790    -0.21500
C1032       C  0.20209126  0.50268009  0.72948907    -0.21500
C1033       C  0.29418123  0.49114152  0.76252109    -0.21500
C1034       C  0.29420515  0.49124006  0.73117877    -0.21500
C1035       C  0.22523127  0.50818016  0.80101319    -0.16800
C1036       C  0.28051747  0.50222087  0.80184393    -0.16800
C1037       C  0.28071468  0.50263516  0.69168101    -0.16800
C1038       C  0.22699285  0.51142047  0.69114512    -0.16800
H1039       H  0.24690780  0.52261849  0.85568044     0.16100
H1040       H  0.27699850  0.51931711  0.85614321     0.16100
H1041       H  0.24872147  0.52490549  0.63678756     0.16100
H1042       H  0.27773774  0.51981491  0.63685010     0.16100
H1043       H  0.18936966  0.49752829  0.77463258     0.14400
H1044       H  0.19050243  0.49982167  0.71460817     0.14400
H1045       H  0.30144233  0.48626855  0.77703397     0.14400
H1046       H  0.30152383  0.48649270  0.71674875     0.14400
H1047       H  0.24827546  0.49738280  0.77247816     0.27600
H1048       H  0.24912160  0.49929871  0.72032704     0.27600
N1049       N  0.25723796  0.74415335  0.80103840    -0.35100
N1050       N  0.28179089  0.77070121  0.75621605    -0.55700
N1051       N  0.25897644  0.74484825  0.70818857    -0.35100
N1052       N  0.23321088  0.71943390  0.75289583    -0.55700
C1053       C  0.26786946  0.75898462  0.81918745     0.28400
C1054       C  0.24216251  0.73209502  0.81732240     0.28400
C1055       C  0.27013918  0.76021738  0.69173296     0.28400
C1056       C  0.24445522  0.73338305  0.69004099     0.28400
C1057       C  0.29218757  0.77856823  0.78150597     0.37100
C1058       C  0.29314591  0.77886739  0.73221927     0.37100
C1059       C  0.22530295  0.70816725  0.77705096     0.37100
C1060       C  0.22620592  0.70863331  0.72786171     0.37100
C1061       C  0.25948505  0.75628715  0.84738829    -0.20400
C1062       C  0.24325203  0.73934823  0.84620089    -0.20400
C1063       C  0.26265002  0.75848606  0.66277594    -0.20400
C1064       C  0.24642921  0.74155522  0.66171778    -0.20400
C1065       C  0.31010233  0.79201978  0.77352453    -0.21500
C1066       C  0.31072633  0.79217285  0.74228738    -0.21500
C1067       C  0.21307948  0.69015828  0.76732593    -0.21500
C1068       C  0.21363820  0.69046281  0.73609463    -0.21500
C1069       C  0.28555020  0.77424760  0.81168877    -0.16800
C1070       C  0.22819728  0.71412941  0.80767567    -0.16800
C1071       C  0.23016227  0.71523754  0.69768165    -0.16800
C1072       C  0.28762613  0.77507281  0.70133629    -0.16800
H1073       H  0.26465053  0.76546696  0.86693256     0.16100
H1074       H  0.23350629  0.73295783  0.86469706     0.16100
H1075       H  0.26841571  0.76830946  0.64419328     0.16100
H1076       H  0.23726804  0.73580370  0.64217019     0.16100
H1077       H  0.32154730  0.80078031  0.78862251     0.14400
H1078       H  0.32274793  0.80109661  0.72857952     0.14400
H1079       H  0.20454407  0.67809209  0.78125163     0.14400
H1080       H  0.20561841  0.67870037  0.72116886     0.14400
H1081       H  0.26119128  0.74134467  0.78025617     0.27600
H1082       H  0.26234398  0.74139664  0.72908040     0.27600
N1083       N  0.16141524  0.51363004  0.55924018    -0.25800
N1084       N  0.17219453  0.50938175  0.54320494    -0.33700
C1085       C  0.18415676  0.50776399  0.56182774     0.02500
C1086       C  0.18099951  0.51123372  0.59125954     0.08500
C1087       C  0.16650172  0.51503952  0.58887599    -0.04600
H1088       H  0.19468795  0.50463645  0.55432435     0.09200
H1089       H  0.15994810  0.51822744  0.60728964     0.10400
Cu1090     Cu  0.17008583  0.50535010  0.99489004     0.44200
Cu1091     Cu  0.14004932  0.51621213  0.53824406     0.42000
Cu1092     Cu  0.13747461  0.51094441  0.95119204     0.43900
N1093       N  0.17070650  0.50605920  0.94825852    -0.33200
N1094       N  0.15911077  0.50879234  0.93129228    -0.27500
C1095       C  0.16388655  0.50937342  0.90181183    -0.03600
C1096       C  0.17909412  0.50664597  0.90052172     0.08600
C1097       C  0.18299029  0.50465584  0.93042723     0.02400
H1098       H  0.15671827  0.51137516  0.88280408     0.10100
H1099       H  0.19421423  0.50273293  0.93875734     0.09200
N1100       N  0.11680980  0.51073763  0.97846091    -0.34700
N1101       N  0.11863107  0.51464545  0.51043752    -0.26800
C1102       C  0.10270420  0.51345149  0.52021731    -0.02100
C1103       C  0.09004006  0.50815759  0.99327295     0.06500
C1104       C  0.10042595  0.50847083  0.96842492     0.04600
H1105       H  0.09963519  0.51407045  0.54393121     0.09700
H1106       H  0.09619799  0.50659612  0.94474794     0.08600
N1107       N  0.16231067  0.64993002  0.93945776    -0.25800
N1108       N  0.17779630  0.66029739  0.95510154    -0.33700
C1109       C  0.19144985  0.67119504  0.93587476     0.02500
C1110       C  0.18426686  0.66764688  0.90662335     0.08500
C1111       C  0.16568566  0.65413743  0.90967482    -0.04600
H1112       H  0.20542540  0.68147955  0.94284431     0.09200
H1113       H  0.15540361  0.64785972  0.89168675     0.10400
Cu1114     Cu  0.17955429  0.66076442  0.00196123     0.44200
Cu1115     Cu  0.13761679  0.63081593  0.96021877     0.42000
Cu1116     Cu  0.13838825  0.63140721  0.54541676     0.43900
N1117       N  0.17912522  0.65955639  0.54940916    -0.33200
N1118       N  0.16372416  0.65039265  0.56547324    -0.27500
C1119       C  0.16765950  0.65584013  0.59477971    -0.03600
C1120       C  0.18648336  0.66894268  0.59703322     0.08600
C1121       C  0.19324812  0.67091377  0.56781547     0.02400
H1122       H  0.15757636  0.65076034  0.61298446     0.10100
H1123       H  0.20724835  0.68048402  0.56020444     0.09200
N1124       N  0.11588069  0.61278538  0.51864521    -0.34700
N1125       N  0.11548816  0.61239494  0.98713239    -0.26800
C1126       C  0.09945837  0.59774063  0.97727273    -0.02100
C1127       C  0.08848725  0.58859928  0.00224512     0.06500
C1128       C  0.09943439  0.59903861  0.52887167     0.04600
H1129       H  0.09634252  0.59376832  0.95359560     0.09700
H1130       H  0.09585621  0.59654375  0.55270644     0.08600
N1131       N  0.85571470  0.33867492  0.56169119    -0.25800
N1132       N  0.84514436  0.32337725  0.54580357    -0.33700
C1133       C  0.83375109  0.30979139  0.56490179     0.02500
C1134       C  0.83712015  0.31676838  0.59434735     0.08500
C1135       C  0.85117900  0.33519771  0.59138651    -0.04600
H1136       H  0.82301541  0.29610364  0.55761942     0.09200
H1137       H  0.85739048  0.34544540  0.60935454     0.10400
Cu1138     Cu  0.84279938  0.32232255  0.00224991     0.44200
Cu1139     Cu  0.87482796  0.36377991  0.54135661     0.42000
Cu1140     Cu  0.87156532  0.36361336  0.95844555     0.43900
N1141       N  0.84208342  0.32301097  0.95500087    -0.33200
N1142       N  0.85210361  0.33829845  0.93892832    -0.27500
C1143       C  0.84723579  0.33456335  0.90936357    -0.03600
C1144       C  0.83351424  0.31599856  0.90664023     0.08600
C1145       C  0.83066882  0.30914170  0.93610735     0.02400
H1146       H  0.85309984  0.34470245  0.89125434     0.10100
H1147       H  0.82037630  0.29533026  0.94350305     0.09200
N1148       N  0.89151279  0.38605713  0.98384141    -0.34700
N1149       N  0.89257115  0.38672055  0.51484594    -0.26800
C1150       C  0.90737003  0.40269988  0.52450972    -0.02100
C1151       C  0.91626546  0.41278824  0.99780347     0.06500
C1152       C  0.90591413  0.40197681  0.97322008     0.04600
H1153       H  0.91190857  0.40564712  0.54800502     0.09700
H1154       H  0.90856072  0.40541028  0.94932664     0.08600
N1155       N  0.84024862  0.49446283  0.93774441    -0.25800
N1156       N  0.82500547  0.48912416  0.95383348    -0.33700
C1157       C  0.81138863  0.48783907  0.93559096     0.02500
C1158       C  0.81838970  0.49269668  0.90650618     0.08500
C1159       C  0.83675184  0.49683309  0.90861970    -0.04600
H1160       H  0.79767118  0.48443605  0.94327291     0.09200
H1161       H  0.84685362  0.50139504  0.89046837     0.10400
Cu1162     Cu  0.82388665  0.48614111  0.00024668     0.44200
Cu1163     Cu  0.86493842  0.49883773  0.95733698     0.42000
Cu1164     Cu  0.86331502  0.49526383  0.54215168     0.43900
N1165       N  0.82347562  0.48581489  0.54726894    -0.33200
N1166       N  0.83878416  0.49056300  0.56315448    -0.27500
C1167       C  0.83545487  0.49227642  0.59267885    -0.03600
C1168       C  0.81710470  0.48833081  0.59527856     0.08600
C1169       C  0.81008253  0.48434552  0.56590498     0.02400
H1170       H  0.84570320  0.49634385  0.61072758     0.10100
H1171       H  0.79652296  0.48159666  0.55820115     0.09200
N1172       N  0.88535072  0.49863326  0.51480939    -0.34700
N1173       N  0.88664472  0.50068978  0.98378037    -0.26800
C1174       C  0.90229134  0.50161061  0.97327213    -0.02100
C1175       C  0.91291831  0.50169027  0.99784211     0.06500
C1176       C  0.90155033  0.50032573  0.52452296     0.04600
H1177       H  0.90561095  0.50220068  0.94938076     0.09700
H1178       H  0.90479812  0.49975469  0.54822991     0.08600
C1179       C  0.01741637  0.51963425  0.99896223     0.03700
C1180       C  0.01771583  0.50278668  0.99715215     0.03700
C1181       C  0.00086187  0.48581305  0.99655795    -0.16800
C1182       C  0.98362239  0.48521398  0.99691512     0.03700
C1183       C  0.98328180  0.50212700  0.99772306     0.03700
C1184       C  0.00022828  0.51911809  0.99897804    -0.16800
H1185       H  0.00004912  0.53207237  0.99987498     0.05800
H1186       H  0.00117852  0.47292743  0.99569942     0.05800
N1187       N  0.49242829  0.25460611  0.80130027    -0.35100
N1188       N  0.49229966  0.22917397  0.75619142    -0.55700
N1189       N  0.48794392  0.25162937  0.70900870    -0.35100
N1190       N  0.49042942  0.27828120  0.75407264    -0.55700
C1191       C  0.49688526  0.24394437  0.81876435     0.28400
C1192       C  0.49669323  0.27008695  0.81753467     0.28400
C1193       C  0.49219960  0.24063621  0.69217300     0.28400
C1194       C  0.49040866  0.26597326  0.69105507     0.28400
C1195       C  0.48978422  0.21879556  0.78137030     0.37100
C1196       C  0.48841735  0.21768792  0.73209209     0.37100
C1197       C  0.48781459  0.28627227  0.77890746     0.37100
C1198       C  0.48485358  0.28433658  0.72979144     0.37100
C1199       C  0.50419630  0.25281794  0.84634331    -0.20400
C1200       C  0.50408612  0.26931639  0.84555985    -0.20400
C1201       C  0.49750908  0.24813963  0.66325447    -0.20400
C1202       C  0.49636461  0.26410361  0.66254611    -0.20400
C1203       C  0.48448323  0.20068086  0.77321299    -0.21500
C1204       C  0.48368567  0.19999705  0.74195484    -0.21500
C1205       C  0.48076832  0.29762868  0.77035999    -0.21500
C1206       C  0.47884137  0.29636062  0.73922294    -0.21500
C1207       C  0.49306192  0.22575231  0.81149804    -0.16800
C1208       C  0.49223358  0.28386474  0.80908210    -0.16800
C1209       C  0.48625145  0.28001038  0.69913822    -0.16800
C1210       C  0.48985886  0.22320537  0.70131006    -0.16800
H1211       H  0.50878887  0.24775537  0.86531965     0.16100
H1212       H  0.50849599  0.27938618  0.86386920     0.16100
H1213       H  0.50150748  0.24252072  0.64442663     0.16100
H1214       H  0.49937612  0.27319136  0.64311724     0.16100
H1215       H  0.48153897  0.18916536  0.78816398     0.14400
H1216       H  0.47998138  0.18784778  0.72810838     0.14400
H1217       H  0.47731631  0.30591620  0.78500995     0.14400
H1218       H  0.47367134  0.30352684  0.72515428     0.14400
H1219       H  0.48452732  0.25036388  0.78142051     0.27600
H1220       H  0.48145263  0.24826602  0.73009371     0.27600
N1221       N  0.74938444  0.50026928  0.79596744    -0.35100
N1222       N  0.77395922  0.49985952  0.74956826    -0.55700
N1223       N  0.74801658  0.49868988  0.70386689    -0.35100
N1224       N  0.72459777  0.50118029  0.75015202    -0.55700
C1225       C  0.76455989  0.50404114  0.81280262     0.28400
C1226       C  0.73871444  0.50469727  0.81316494     0.28400
C1227       C  0.76284423  0.50210397  0.68656205     0.28400
C1228       C  0.73701835  0.50302154  0.68696395     0.28400
C1229       C  0.78126684  0.49613749  0.77432985     0.37100
C1230       C  0.78041153  0.49505376  0.72510537     0.37100
C1231       C  0.71394010  0.49791703  0.77503755     0.37100
C1232       C  0.71312842  0.49704436  0.72587768     0.37100
C1233       C  0.76355188  0.51096012  0.84100783    -0.20400
C1234       C  0.74722442  0.51139941  0.84122385    -0.20400
C1235       C  0.76136164  0.50888306  0.65843115    -0.20400
C1236       C  0.74506854  0.50948341  0.65869626    -0.20400
C1237       C  0.79266305  0.48922818  0.76563806    -0.21500
C1238       C  0.79203085  0.48842338  0.73437984    -0.21500
C1239       C  0.69566578  0.49189822  0.76662719    -0.21500
C1240       C  0.69511745  0.49123342  0.73538906    -0.21500
C1241       C  0.77823265  0.49954141  0.80459031    -0.16800
C1242       C  0.72078855  0.50132949  0.80513993    -0.16800
C1243       C  0.71904033  0.49943410  0.69532855    -0.16800
C1244       C  0.77667055  0.49757051  0.69457815    -0.16800
H1245       H  0.77335997  0.51487706  0.85974456     0.16100
H1246       H  0.74201437  0.51576427  0.86014677     0.16100
H1247       H  0.77082745  0.51260526  0.63944367     0.16100
H1248       H  0.73952634  0.51373358  0.63993433     0.16100
H1249       H  0.80052523  0.48512436  0.78027710     0.14400
H1250       H  0.79933032  0.48355460  0.72017092     0.14400
H1251       H  0.68397569  0.48835353  0.78144347     0.14400
H1252       H  0.68287178  0.48702765  0.72135570     0.14400
H1253       H  0.74532611  0.49272471  0.77577513     0.27600
H1254       H  0.74427987  0.49130505  0.72419936     0.27600
N1255       N  0.48948448  0.75369043  0.79060709    -0.35100
N1256       N  0.48918617  0.77835253  0.74456333    -0.55700
N1257       N  0.48671365  0.75191109  0.69795496    -0.35100
N1258       N  0.48923966  0.72839436  0.74408713    -0.55700
C1259       C  0.49385125  0.76896840  0.80755653     0.28400
C1260       C  0.49362440  0.74260159  0.80748089     0.28400
C1261       C  0.49011157  0.76679995  0.68075347     0.28400
C1262       C  0.48994602  0.74044578  0.68037130     0.28400
C1263       C  0.48595213  0.78594409  0.76931654     0.37100
C1264       C  0.48449505  0.78500653  0.72007861     0.37100
C1265       C  0.48628060  0.71776237  0.76907353     0.37100
C1266       C  0.48525764  0.71701055  0.71975659     0.37100
C1267       C  0.50098941  0.76762637  0.83547335    -0.20400
C1268       C  0.50081443  0.75096527  0.83544807    -0.20400
C1269       C  0.49553762  0.76476029  0.65186045    -0.20400
C1270       C  0.49539153  0.74811857  0.65160961    -0.20400
C1271       C  0.47925028  0.79754985  0.76055347    -0.21500
C1272       C  0.47835407  0.79698031  0.72926297    -0.21500
C1273       C  0.48064413  0.69961701  0.76056081    -0.21500
C1274       C  0.48005157  0.69915828  0.72930302    -0.21500
C1275       C  0.48989434  0.78315767  0.79954333    -0.16800
C1276       C  0.48946423  0.72441411  0.79939861    -0.16800
C1277       C  0.48697359  0.72271883  0.68903024    -0.16800
C1278       C  0.48686987  0.78133047  0.68956761    -0.16800
H1279       H  0.50543214  0.77742065  0.85419876     0.16100
H1280       H  0.50512353  0.74544412  0.85414813     0.16100
H1281       H  0.49892542  0.77413207  0.63273397     0.16100
H1282       H  0.49871762  0.74223845  0.63232476     0.16100
H1283       H  0.47551221  0.80564229  0.77514408     0.14400
H1284       H  0.47381137  0.80457733  0.71490494     0.14400
H1285       H  0.47734750  0.68792144  0.77530215     0.14400
H1286       H  0.47616941  0.68705101  0.71523922     0.14400
H1287       H  0.48170810  0.74979273  0.77058148     0.27600
H1288       H  0.48032732  0.74871188  0.71910507     0.27600
N1289       N  0.34435098  0.49986921  0.55946132    -0.25800
N1290       N  0.32894795  0.49422196  0.54335322    -0.33700
C1291       C  0.31513516  0.49194360  0.56184319     0.02500
C1292       C  0.32212057  0.49645656  0.59120525     0.08500
C1293       C  0.34076031  0.50147469  0.58884157    -0.04600
H1294       H  0.30124405  0.48811976  0.55418116     0.09200
H1295       H  0.35097903  0.50608338  0.60702861     0.10400
Cu1296     Cu  0.32651080  0.48987723  0.99869954     0.44200
Cu1297     Cu  0.36916289  0.50523453  0.53914797     0.42000
Cu1298     Cu  0.36924963  0.50630599  0.95781887     0.43900
N1299       N  0.32847494  0.49343550  0.95211745    -0.33200
N1300       N  0.34416648  0.50005448  0.93677678    -0.27500
C1301       C  0.34070829  0.50190546  0.90732264    -0.03600
C1302       C  0.32188609  0.49620114  0.90406300     0.08600
C1303       C  0.31469692  0.49096279  0.93309938     0.02400
H1304       H  0.35117131  0.50709264  0.88972040     0.10100
H1305       H  0.30065448  0.48653239  0.94037109     0.09200
N1306       N  0.39031673  0.50714686  0.98511650    -0.34700
N1307       N  0.39091820  0.50766357  0.51240392    -0.26800
C1308       C  0.40654880  0.50833930  0.52274054    -0.02100
C1309       C  0.41579032  0.50684887  0.00018327     0.06500
C1310       C  0.40626691  0.50846720  0.97535042     0.04600
H1311       H  0.40951468  0.50767942  0.54657165     0.09700
H1312       H  0.41050396  0.51036993  0.95177239     0.08600
N1313       N  0.48701165  0.65570695  0.55855133    -0.25800
N1314       N  0.47927322  0.66372144  0.54293832    -0.33700
C1315       C  0.47624414  0.67472327  0.56156675     0.02500
C1316       C  0.48242565  0.67384561  0.59054652     0.08500
C1317       C  0.48923478  0.66161844  0.58774301    -0.04600
H1318       H  0.47089072  0.68356866  0.55406022     0.09200
H1319       H  0.49551319  0.65747553  0.60547949     0.10400
Cu1320     Cu  0.47572253  0.66195302  0.49610459     0.44200
Cu1321     Cu  0.49443882  0.63762882  0.53779530     0.42000
Cu1322     Cu  0.49477153  0.63901796  0.95100427     0.43900
N1323       N  0.48310189  0.66795001  0.94775221    -0.33200
N1324       N  0.48896502  0.65852819  0.93152368    -0.27500
C1325       C  0.49047288  0.66396409  0.90223845    -0.03600
C1326       C  0.48521487  0.67739461  0.90005503     0.08600
C1327       C  0.48065078  0.67951484  0.92943032     0.02400
H1328       H  0.49511615  0.65858290  0.88396681     0.10100
H1329       H  0.47657720  0.68930432  0.93722740     0.09200
N1330       N  0.49771268  0.61948776  0.97689303    -0.34700
N1331       N  0.49863095  0.61936408  0.51043851    -0.26800
C1332       C  0.50116739  0.60538092  0.52012739    -0.02100
C1333       C  0.50063456  0.59524569  0.99095096     0.06500
C1334       C  0.50020951  0.60563966  0.96639833     0.04600
H1335       H  0.50124449  0.60197372  0.54386782     0.09700
H1336       H  0.50166009  0.60342837  0.94256325     0.08600
N1337       N  0.48242553  0.34433812  0.56714081    -0.25800
N1338       N  0.47695695  0.32908106  0.55087193    -0.33700
C1339       C  0.47460202  0.31514368  0.56929035     0.02500
C1340       C  0.47887673  0.32179835  0.59884705     0.08500
C1341       C  0.48379711  0.34044560  0.59658576    -0.04600
H1342       H  0.47121521  0.30147077  0.56135670     0.09200
H1343       H  0.48842557  0.35054645  0.61484397     0.10400
Cu1344     Cu  0.47617733  0.32849543  0.50388467     0.44200
Cu1345     Cu  0.48889445  0.36975304  0.54683865     0.42000
Cu1346     Cu  0.49341237  0.37197315  0.96254280     0.43900
N1347       N  0.48409301  0.33232595  0.95739311    -0.33200
N1348       N  0.48944411  0.34775959  0.94173366    -0.27500
C1349       C  0.49169161  0.34459923  0.91235961    -0.03600
C1350       C  0.48741154  0.32620760  0.90956639     0.08600
C1351       C  0.48274918  0.31897695  0.93866224     0.02400
H1352       H  0.49599431  0.35486841  0.89443941     0.10100
H1353       H  0.47912254  0.30512385  0.94597176     0.09200
N1354       N  0.49588188  0.39365272  0.98961723    -0.34700
N1355       N  0.49419933  0.39257494  0.51935767    -0.26800
C1356       C  0.49565545  0.40876095  0.52839769    -0.02100
C1357       C  0.49874016  0.42058212  0.00400808     0.06500
C1358       C  0.49788707  0.40980820  0.97933508     0.04600
H1359       H  0.49406837  0.41189063  0.55170082     0.09700
H1360       H  0.49875044  0.41343823  0.95550061     0.08600
N1361       N  0.65821090  0.50619331  0.93635145    -0.25800
N1362       N  0.66940497  0.50276516  0.95313160    -0.33700
C1363       C  0.68191823  0.50181268  0.93529384     0.02500
C1364       C  0.67851825  0.50477236  0.90565523     0.08500
C1365       C  0.66345477  0.50765974  0.90700965    -0.04600
H1366       H  0.69249902  0.49882051  0.94332330     0.09200
H1367       H  0.65636933  0.50982892  0.88805149     0.10400
Cu1368     Cu  0.66693986  0.49859995  0.99914699     0.44200
Cu1369     Cu  0.63580422  0.50703042  0.95556070     0.42000
Cu1370     Cu  0.63451014  0.50404487  0.54024697     0.43900
N1371       N  0.66451111  0.49419778  0.54628489    -0.33200
N1372       N  0.65331379  0.49806418  0.56186134    -0.27500
C1373       C  0.65691754  0.49788101  0.59180070    -0.03600
C1374       C  0.67099924  0.49355493  0.59496913     0.08600
C1375       C  0.67538278  0.49131390  0.56557227     0.02400
H1376       H  0.65007082  0.50102714  0.60978332     0.10100
H1377       H  0.68649377  0.48893391  0.55854125     0.09200
N1378       N  0.61583993  0.50726644  0.51251298    -0.34700
N1379       N  0.61478734  0.50652145  0.98193334    -0.26800
C1380       C  0.60074508  0.50872696  0.97140656    -0.02100
C1381       C  0.58984249  0.50791411  0.99575374     0.06500
C1382       C  0.60078706  0.50793953  0.52190912     0.04600
H1383       H  0.59882073  0.51104889  0.94774796     0.09700
H1384       H  0.59670980  0.50696748  0.54548241     0.08600
C1385       C  0.50392983  0.52693894  0.99507211     0.03700
C1386       C  0.48703969  0.50987792  0.99777878     0.03700
C1387       C  0.48738036  0.49322363  0.99990101    -0.16800
C1388       C  0.50420978  0.49306150  0.99938550     0.03700
C1389       C  0.52120927  0.51013750  0.99681559     0.03700
C1390       C  0.52086214  0.52689536  0.99498352    -0.16800
H1391       H  0.53384176  0.53996938  0.99289268     0.05800
H1392       H  0.47434665  0.48020131  0.00210822     0.05800
C1393       C  0.55981772  0.50152923  0.97099294     0.25100
C1394       C  0.57279095  0.50946608  0.99502469    -0.23000
C1395       C  0.56934411  0.51808495  0.52026795     0.20000
C1396       C  0.55247519  0.51811522  0.52040173     0.25000
C1397       C  0.53938057  0.51073262  0.99535401    -0.23000
C1398       C  0.54325840  0.50213664  0.97121003     0.19900
F1399       F  0.53090012  0.49419029  0.94792091    -0.13000
F1400       F  0.56278007  0.49252705  0.94784983    -0.15300
F1401       F  0.54863978  0.52608200  0.54413575    -0.15300
F1402       F  0.58161470  0.52667194  0.54343900    -0.13000
C1403       C  0.51038231  0.45269114  0.02570479     0.25100
C1404       C  0.50031586  0.43922764  0.00313472    -0.23000
C1405       C  0.49397769  0.44402288  0.47562980     0.20000
C1406       C  0.49538044  0.46152069  0.47433776     0.25000
C1407       C  0.50334725  0.47472853  0.00070883    -0.23000
C1408       C  0.51184234  0.47026544  0.02453873     0.19900
F1409       F  0.52124334  0.48277413  0.04700670    -0.13000
F1410       F  0.51912509  0.44900541  0.04859664    -0.15300
F1411       F  0.48925771  0.46632878  0.44905664    -0.15300
F1412       F  0.48596748  0.43224161  0.45175096    -0.13000
C1413       C  0.51190981  0.55731136  0.52084830     0.25100
C1414       C  0.50415434  0.54491619  0.99288120    -0.23000
C1415       C  0.49801026  0.54977407  0.96637417     0.20000
C1416       C  0.49716627  0.56624665  0.96530183     0.25000
C1417       C  0.50262558  0.57829001  0.99076963    -0.23000
C1418       C  0.51145085  0.57397696  0.52023319     0.19900
F1419       F  0.51863010  0.58566213  0.54440787    -0.13000
F1420       F  0.51843359  0.55294600  0.54611953    -0.15300
F1421       F  0.49046558  0.56999662  0.93963337    -0.15300
F1422       F  0.49275494  0.53849741  0.94154610    -0.13000
C1423       C  0.43917912  0.50069071  0.97449646     0.25100
C1424       C  0.43384062  0.50710554  0.00009232    -0.23000
C1425       C  0.44761517  0.51649163  0.52302376     0.20000
C1426       C  0.46451825  0.51655570  0.52299675     0.25000
C1427       C  0.46877685  0.50897374  0.99867230    -0.23000
C1428       C  0.45647906  0.50162836  0.97385091     0.19900
F1429       F  0.46128728  0.49538584  0.94889806    -0.13000
F1430       F  0.42747822  0.49298870  0.95036049    -0.15300
F1431       F  0.47618028  0.52373205  0.54731974    -0.15300
F1432       F  0.44386056  0.52439681  0.54692044    -0.13000
C1433       C  0.47220695  0.69382873  0.86943531     0.25100
C1434       C  0.48566610  0.68835142  0.87304637    -0.23000
C1435       C  0.50004732  0.69428069  0.85151187     0.20000
C1436       C  0.50122353  0.70586522  0.82739030     0.25000
C1437       C  0.48800725  0.71161418  0.82430739    -0.23000
C1438       C  0.47339408  0.70536074  0.84529578     0.19900
F1439       F  0.46028150  0.71049723  0.84236327    -0.13000
F1440       F  0.45772975  0.68782939  0.88904009    -0.15300
F1441       F  0.51550552  0.71184646  0.80739818    -0.15300
F1442       F  0.51346618  0.68958998  0.85453413    -0.13000
C1443       C  0.47020045  0.70179073  0.64464653     0.25100
C1444       C  0.48553551  0.70952255  0.66464579    -0.23000
C1445       C  0.49940850  0.70466253  0.66131054     0.20000
C1446       C  0.49811656  0.69248996  0.63803042     0.25000
C1447       C  0.48302449  0.68516206  0.61732417    -0.23000
C1448       C  0.46894915  0.68977270  0.62124558     0.19900
F1449       F  0.45377630  0.68245034  0.60263746    -0.13000
F1450       F  0.45638714  0.70590246  0.64784603    -0.15300
F1451       F  0.51205295  0.68855852  0.63503002    -0.15300
F1452       F  0.51445126  0.71209957  0.68020540    -0.13000
C1453       C  0.68577881  0.50721079  0.64561743     0.25100
C1454       C  0.68136073  0.49378663  0.62268098    -0.23000
C1455       C  0.68852418  0.48163431  0.62488750     0.20000
C1456       C  0.70048339  0.48337376  0.64874538     0.25000
C1457       C  0.70567035  0.49737329  0.67077596    -0.23000
C1458       C  0.69802322  0.50913253  0.66928954     0.19900
F1459       F  0.70279778  0.52278002  0.69032205    -0.13000
F1460       F  0.67906972  0.51911801  0.64432694    -0.15300
F1461       F  0.70719879  0.47146504  0.65022494    -0.15300
F1462       F  0.68394389  0.46800688  0.60389236    -0.13000
C1463       C  0.70502938  0.51627044  0.83167043     0.25100
C1464       C  0.70876183  0.50158176  0.82964339    -0.23000
C1465       C  0.70184419  0.48759456  0.85187150     0.20000
C1466       C  0.69167932  0.48850691  0.87629126     0.25000
C1467       C  0.68808956  0.50331161  0.87862011    -0.23000
C1468       C  0.69461047  0.51706763  0.85593829     0.19900
F1469       F  0.69174407  0.53174213  0.85813656    -0.13000
F1470       F  0.71207862  0.53014383  0.81072319    -0.15300
F1471       F  0.68527142  0.47486623  0.89764913    -0.15300
F1472       F  0.70522413  0.47322636  0.85011482    -0.13000
C1473       C  0.47639068  0.28674959  0.85505998     0.25100
C1474       C  0.49075323  0.29531883  0.83372423    -0.23000
C1475       C  0.50352180  0.31448865  0.83622742     0.20000
C1476       C  0.50211537  0.32485364  0.86022738     0.25000
C1477       C  0.48802276  0.31608953  0.88220396    -0.23000
C1478       C  0.47497173  0.29700892  0.87894032     0.19900
F1479       F  0.46062060  0.28825435  0.89870968    -0.13000
F1480       F  0.46375971  0.26830541  0.85280890    -0.15300
F1481       F  0.51497937  0.34321192  0.86265513    -0.15300
F1482       F  0.51761641  0.32300421  0.81593510    -0.13000
C1483       C  0.46939152  0.28208631  0.65272088     0.25100
C1484       C  0.48381607  0.29097726  0.67428900    -0.23000
C1485       C  0.49611149  0.31024310  0.67171853     0.20000
C1486       C  0.49416674  0.32040631  0.64786506     0.25000
C1487       C  0.47999797  0.31145653  0.62579348    -0.23000
C1488       C  0.46752254  0.29218002  0.62870281     0.19900
F1489       F  0.45333961  0.28307285  0.60845858    -0.13000
F1490       F  0.45712747  0.26354953  0.65488829    -0.15300
F1491       F  0.50673539  0.33883998  0.64563480    -0.15300
F1492       F  0.51036002  0.31913492  0.69191608    -0.13000
C1493       C  0.78977124  0.48062805  0.87430430     0.25100
C1494       C  0.80849205  0.49418293  0.87964369    -0.23000
C1495       C  0.81737595  0.50948668  0.85984584     0.20000
C1496       C  0.80767733  0.51113524  0.83498648     0.25000
C1497       C  0.78910030  0.49739864  0.82948918    -0.23000
C1498       C  0.78021610  0.48216316  0.84925962     0.19900
F1499       F  0.76212262  0.46896642  0.84452989    -0.13000
F1500       F  0.78072619  0.46584155  0.89325029    -0.15300
F1501       F  0.81611251  0.52646030  0.81701494    -0.15300
F1502       F  0.83507400  0.52332590  0.86552784    -0.13000
C1503       C  0.78769860  0.47845558  0.62434366     0.25100
C1504       C  0.80720891  0.48981571  0.62227098    -0.23000
C1505       C  0.81673837  0.50338540  0.64492251     0.20000
C1506       C  0.80685804  0.50605969  0.66825400     0.25000
C1507       C  0.78734899  0.49495315  0.66978773    -0.23000
C1508       C  0.77791027  0.48101616  0.64780430     0.19900
F1509       F  0.75911849  0.46984146  0.64907453    -0.13000
F1510       F  0.77801936  0.46463979  0.60383668    -0.15300
F1511       F  0.81629361  0.51975670  0.68906128    -0.15300
F1512       F  0.83550836  0.51461317  0.64388580    -0.13000
C1513       C  0.93591918  0.49447224  0.97264952     0.25100
C1514       C  0.93113817  0.50217012  0.99723767    -0.23000
C1515       C  0.94290070  0.50981898  0.52516190     0.20000
C1516       C  0.95976316  0.50973666  0.52595653     0.25000
C1517       C  0.96548592  0.50246367  0.99712161    -0.23000
C1518       C  0.95294111  0.49471182  0.97257413     0.19900
F1519       F  0.95722807  0.48742840  0.94838482    -0.13000
F1520       F  0.92396753  0.48621471  0.94897785    -0.15300
F1521       F  0.97060568  0.51587535  0.55137292    -0.15300
F1522       F  0.93852033  0.51696165  0.54941011    -0.13000
C1523       C  0.93713449  0.44428647  0.02091779     0.25100
C1524       C  0.93343649  0.43138928  0.99731560    -0.23000
C1525       C  0.94616609  0.43757189  0.47547820     0.20000
C1526       C  0.96261184  0.45490917  0.47584305     0.25000
C1527       C  0.96627096  0.46671659  0.99699591    -0.23000
C1528       C  0.95343243  0.46167421  0.02086581     0.19900
F1529       F  0.95683358  0.47347342  0.04452618    -0.13000
F1530       F  0.92483140  0.44026348  0.04389588    -0.15300
F1531       F  0.97484320  0.45942273  0.45258530    -0.15300
F1532       F  0.94326085  0.42561784  0.45227104    -0.13000
C1533       C  0.05726811  0.56807768  0.47926460     0.25100
C1534       C  0.06985032  0.57132441  0.00213116    -0.23000
C1535       C  0.06426642  0.55869074  0.02665427     0.20000
C1536       C  0.04698903  0.54220418  0.02602779     0.25000
C1537       C  0.03498606  0.53787380  0.00083154    -0.23000
C1538       C  0.03994869  0.55164314  0.47869450     0.19900
F1539       F  0.02875348  0.54762142  0.45382360    -0.13000
F1540       F  0.06196033  0.57985343  0.45524175    -0.15300
F1541       F  0.04203757  0.53030830  0.04995090    -0.15300
F1542       F  0.07576591  0.56184747  0.05080689    -0.13000
C1543       C  0.06019738  0.50025823  0.52046396     0.25100
C1544       C  0.07097916  0.50563297  0.99327861    -0.23000
C1545       C  0.06490548  0.51255416  0.96918172     0.20000
C1546       C  0.04730202  0.51094912  0.96996611     0.25000
C1547       C  0.03555030  0.50273487  0.99503846    -0.23000
C1548       C  0.04238004  0.49827389  0.52098459     0.19900
F1549       F  0.03145244  0.49056234  0.54575253    -0.13000
F1550       F  0.06557965  0.49369879  0.54443576    -0.15300
F1551       F  0.04175026  0.51758742  0.94629600    -0.15300
F1552       F  0.07621723  0.52151186  0.94532579    -0.13000
C1553       C  0.21539067  0.68333107  0.62905319     0.25100
C1554       C  0.19712347  0.67978296  0.62395519    -0.23000
C1555       C  0.18959596  0.68758079  0.64372273     0.20000
C1556       C  0.20028667  0.69899337  0.66787621     0.25000
C1557       C  0.21856940  0.70264656  0.67270328    -0.23000
C1558       C  0.22598103  0.69458978  0.65336447     0.19900
F1559       F  0.24351397  0.69770506  0.65805214    -0.13000
F1560       F  0.22293485  0.67576230  0.61062976    -0.15300
F1561       F  0.19301141  0.70689900  0.68611925    -0.15300
F1562       F  0.17225975  0.68492739  0.63875327    -0.13000
C1563       C  0.22370743  0.69315905  0.85143807     0.25100
C1564       C  0.21615358  0.70075715  0.83124468    -0.23000
C1565       C  0.19739148  0.69593455  0.83403095     0.20000
C1566       C  0.18652847  0.68422503  0.85763657     0.25000
C1567       C  0.19445290  0.67748521  0.87894437    -0.23000
C1568       C  0.21297928  0.68167746  0.87517089     0.19900
F1569       F  0.22073196  0.67470156  0.89462010    -0.13000
F1570       F  0.24162068  0.69716358  0.84839966    -0.15300
F1571       F  0.16866562  0.68037917  0.86065925    -0.15300
F1572       F  0.18984906  0.70310329  0.81453672    -0.13000
C1573       C  0.32073949  0.51200567  0.63934280     0.25100
C1574       C  0.31198173  0.49727401  0.61830946    -0.23000
C1575       C  0.29305953  0.48388753  0.62238924     0.20000
C1576       C  0.28301552  0.48547232  0.64655285     0.25000
C1577       C  0.29171859  0.50036961  0.66716576    -0.23000
C1578       C  0.31066819  0.51352726  0.66355346     0.19900
F1579       F  0.31921389  0.52822771  0.68288610    -0.13000
F1580       F  0.33877299  0.52548832  0.63559063    -0.15300
F1581       F  0.26470877  0.47257205  0.64969821    -0.15300
F1582       F  0.28429815  0.46917971  0.60309135    -0.13000
C1583       C  0.29231859  0.48457641  0.87352550     0.25100
C1584       C  0.31166612  0.49691620  0.87655288    -0.23000
C1585       C  0.32080953  0.51051627  0.85387475     0.20000
C1586       C  0.31076891  0.51203337  0.82933156     0.25000
C1587       C  0.29145817  0.49996098  0.82683695    -0.23000
C1588       C  0.28234804  0.48616848  0.84903164     0.19900
F1589       F  0.26367531  0.47433255  0.84711556    -0.13000
F1590       F  0.28296319  0.47080168  0.89410288    -0.15300
F1591       F  0.31978202  0.52576183  0.80854633    -0.15300
F1592       F  0.33930352  0.52296883  0.85607571    -0.13000
C1593       C  0.20693938  0.49370242  0.84838951     0.25100
C1594       C  0.21255419  0.50735843  0.82562874    -0.23000
C1595       C  0.20629104  0.52026594  0.82677441     0.20000
C1596       C  0.19472823  0.51960474  0.85045306     0.25000
C1597       C  0.18958061  0.50626863  0.87367899    -0.23000
C1598       C  0.19567529  0.49323428  0.87226924     0.19900
F1599       F  0.19058675  0.47989290  0.89394269    -0.13000
F1600       F  0.21249243  0.48085614  0.84755457    -0.15300
F1601       F  0.18935615  0.53257213  0.85148589    -0.15300
F1602       F  0.21180313  0.53381646  0.80539115    -0.13000
C1603       C  0.20741266  0.49694500  0.64484401     0.25100
C1604       C  0.21473339  0.51145841  0.66622736    -0.23000
C1605       C  0.20993639  0.52546503  0.66409922     0.20000
C1606       C  0.19827726  0.52510123  0.64042239     0.25000
C1607       C  0.19137873  0.51077803  0.61853249    -0.23000
C1608       C  0.19583348  0.49656844  0.62132682     0.19900
F1609       F  0.18878416  0.48212750  0.60136219    -0.13000
F1610       F  0.21149076  0.48305352  0.64684949    -0.15300
F1611       F  0.19442672  0.53913453  0.63811935    -0.15300
F1612       F  0.21688006  0.53966329  0.68453168    -0.13000
C1613       C  0.54449700  0.04620669  0.52464091     0.25100
C1614       C  0.53425723  0.04207119  0.00035856    -0.23000
C1615       C  0.53890234  0.05364990  0.97475825     0.20000
C1616       C  0.55559752  0.07072966  0.97399065     0.25000
C1617       C  0.56816643  0.07660150  0.99886869    -0.23000
C1618       C  0.56132158  0.06318535  0.52399915     0.19900
F1619       F  0.57311539  0.06765459  0.54811776    -0.13000
F1620       F  0.54032658  0.03512259  0.54953798    -0.15300
F1621       F  0.55907373  0.08166382  0.94911409    -0.15300
F1622       F  0.52723172  0.04833483  0.95032710    -0.13000
C1623       C  0.50209671  0.20488534  0.67390266     0.25100
C1624       C  0.48836228  0.20995923  0.67711503    -0.23000
C1625       C  0.47324427  0.20272586  0.65668071     0.20000
C1626       C  0.47220525  0.19119416  0.63272423     0.25000
C1627       C  0.48619766  0.18652426  0.62887467    -0.23000
C1628       C  0.50094254  0.19311447  0.65008415     0.19900
F1629       F  0.51475145  0.18901406  0.64679310    -0.13000
F1630       F  0.51692545  0.21184659  0.69322809    -0.15300
F1631       F  0.45746690  0.18456201  0.61323242    -0.15300
F1632       F  0.45959529  0.20708446  0.65974962    -0.13000
C1633       C  0.47876786  0.20850013  0.85975872     0.25100
C1634       C  0.49226851  0.21350134  0.83698772    -0.23000
C1635       C  0.50528164  0.20740833  0.83930819     0.20000
C1636       C  0.50490378  0.19663736  0.86420965     0.25000
C1637       C  0.49153916  0.19186487  0.88722182    -0.23000
C1638       C  0.47841509  0.19783392  0.88462881     0.19900
F1639       F  0.46501881  0.19313659  0.90598307    -0.13000
F1640       F  0.46596850  0.21410617  0.85798184    -0.15300
F1641       F  0.51812069  0.19162036  0.86650685    -0.15300
F1642       F  0.51863793  0.21230964  0.81783402    -0.13000
C1643       C  0.50562788  0.05382086  0.02727258     0.25100
C1644       C  0.49787254  0.04136852  0.00268316    -0.23000
C1645       C  0.48624173  0.04422198  0.48119064     0.20000
C1646       C  0.48589075  0.06093477  0.48114230     0.25000
C1647       C  0.49622153  0.07471559  0.00430337    -0.23000
C1648       C  0.50485107  0.07029688  0.02807711     0.19900
F1649       F  0.51295056  0.08209554  0.05190731    -0.13000
F1650       F  0.51375833  0.04989734  0.05083797    -0.15300
F1651       F  0.47617559  0.06372702  0.45881586    -0.15300
F1652       F  0.47760751  0.03180800  0.45826931    -0.13000
C1653       C  0.30035325  0.80378442  0.84268325     0.25100
C1654       C  0.29793882  0.78606454  0.83689424    -0.23000
C1655       C  0.30751633  0.77958230  0.85498475     0.20000
C1656       C  0.31917661  0.79054864  0.87876691     0.25000
C1657       C  0.32160493  0.80829111  0.88466699    -0.23000
C1658       C  0.31218672  0.81486472  0.86628313     0.19900
F1659       F  0.31374483  0.83163238  0.87213031    -0.13000
F1660       F  0.29089251  0.81013314  0.82591476    -0.15300
F1661       F  0.32824011  0.78390023  0.89589840    -0.15300
F1662       F  0.30552511  0.76258595  0.84953848    -0.13000
C1663       C  0.32058828  0.79009762  0.63450451     0.25100
C1664       C  0.32452962  0.80848320  0.62970100    -0.23000
C1665       C  0.31717153  0.81627539  0.64989535     0.20000
C1666       C  0.30528645  0.80550680  0.67343043     0.25000
C1667       C  0.30093742  0.78697332  0.67747916    -0.23000
C1668       C  0.30895270  0.77948034  0.65822644     0.19900
F1669       F  0.30526985  0.76173578  0.66222989    -0.13000
F1670       F  0.32803515  0.78238193  0.61619951    -0.15300
F1671       F  0.29750377  0.81292070  0.69164932    -0.15300
F1672       F  0.32064946  0.83394153  0.64590660    -0.13000
C1673       C  0.43518636  0.94831391  0.97939448     0.25100
C1674       C  0.43143466  0.93601901  0.00406231    -0.23000
C1675       C  0.44306609  0.94010208  0.52911823     0.20000
C1676       C  0.45880543  0.95798864  0.52917290     0.25000
C1677       C  0.46430733  0.97164973  0.00316475    -0.23000
C1678       C  0.45128103  0.96599554  0.97919591     0.19900
F1679       F  0.45447272  0.97739491  0.95500812    -0.13000
F1680       F  0.42317886  0.94339352  0.95549832    -0.15300
F1681       F  0.47129041  0.96300588  0.55241528    -0.15300
F1682       F  0.44130751  0.92818951  0.55175664    -0.13000
C1683       C  0.50054699  0.81139425  0.66069948     0.25100
C1684       C  0.48579031  0.79316840  0.66524355    -0.23000
C1685       C  0.47040819  0.78572809  0.64541072     0.20000
C1686       C  0.46988888  0.79621960  0.62095785     0.25000
C1687       C  0.48472933  0.81437907  0.61602400    -0.23000
C1688       C  0.50001014  0.82197857  0.63625362     0.19900
F1689       F  0.51487481  0.83917192  0.63131017    -0.13000
F1690       F  0.51578463  0.81858256  0.67916625    -0.15300
F1691       F  0.45487184  0.78860175  0.60200557    -0.15300
F1692       F  0.45607586  0.76810816  0.64943025    -0.13000
C1693       C  0.50280438  0.81392316  0.82699685     0.25100
C1694       C  0.48914513  0.79501858  0.82429757    -0.23000
C1695       C  0.47485493  0.78708679  0.84586929     0.20000
C1696       C  0.47433788  0.79769301  0.87007780     0.25000
C1697       C  0.48834114  0.81646192  0.87363640    -0.23000
C1698       C  0.50247259  0.82456592  0.85155492     0.19900
F1699       F  0.51642440  0.84249109  0.85440745    -0.13000
F1700       F  0.51677041  0.82188747  0.80637267    -0.15300
F1701       F  0.45992679  0.78956013  0.88986793    -0.15300
F1702       F  0.46139374  0.76892304  0.84353300    -0.13000
C1703       C  0.50699046  0.95025645  0.51957683     0.25100
C1704       C  0.50099510  0.93898577  0.99798122    -0.23000
C1705       C  0.49201192  0.94330556  0.97474203     0.20000
C1706       C  0.49205502  0.96016125  0.97519308     0.25000
C1707       C  0.50068586  0.97286508  0.99923308    -0.23000
C1708       C  0.50704735  0.96711921  0.52084373     0.19900
F1709       F  0.51564593  0.97886352  0.54458104    -0.13000
F1710       F  0.51612659  0.94649235  0.54168868    -0.15300
F1711       F  0.48368875  0.96410657  0.95202001    -0.15300
F1712       F  0.48262563  0.93097244  0.95205028    -0.13000
C1713       C  0.80878905  0.30590020  0.66713463     0.25100
C1714       C  0.80155431  0.28658714  0.66975901    -0.23000
C1715       C  0.80733778  0.27767751  0.64900575     0.20000
C1716       C  0.81952356  0.28769359  0.62534053     0.25000
C1717       C  0.82621587  0.30687962  0.62185744    -0.23000
C1718       C  0.82112861  0.31600043  0.64355062     0.19900
F1719       F  0.82727596  0.33448039  0.64107873    -0.13000
F1720       F  0.80334744  0.31484241  0.68678545    -0.15300
F1721       F  0.82482273  0.27858867  0.60579021    -0.15300
F1722       F  0.80085527  0.25912967  0.65136342    -0.13000
C1723       C  0.81719969  0.31514124  0.85771791     0.25100
C1724       C  0.82268261  0.30605896  0.87900017    -0.23000
C1725       C  0.81696183  0.28715010  0.87434523     0.20000
C1726       C  0.80563498  0.27745383  0.84938630     0.25000
C1727       C  0.79964295  0.28639715  0.82888478    -0.23000
C1728       C  0.80570195  0.30535606  0.83298863     0.19900
F1729       F  0.79992526  0.31421238  0.81358045    -0.13000
F1730       F  0.82212600  0.33324449  0.86168502    -0.15300
F1731       F  0.80027927  0.25923745  0.84535943    -0.15300
F1732       F  0.82242279  0.27806627  0.89384589    -0.13000
C1733       C  0.68430183  0.21294782  0.86455729     0.25100
C1734       C  0.68202196  0.19590550  0.87486724    -0.23000
C1735       C  0.69168190  0.18825851  0.86025521     0.20000
C1736       C  0.70412268  0.19798301  0.83663105     0.25000
C1737       C  0.70674614  0.21526324  0.82678217    -0.23000
C1738       C  0.69637441  0.22243875  0.84045587     0.19900
F1739       F  0.69835395  0.23889965  0.83099579    -0.13000
F1740       F  0.67480918  0.22039361  0.87794853    -0.15300
F1741       F  0.71399691  0.19078872  0.82380900    -0.15300
F1742       F  0.68979077  0.17185529  0.86987635    -0.13000
C1743       C  0.69225592  0.18701646  0.63474056     0.25100
C1744       C  0.68330648  0.19522251  0.61922426    -0.23000
C1745       C  0.68689760  0.21296809  0.62822537     0.20000
C1746       C  0.69910775  0.22230044  0.65243454     0.25000
C1747       C  0.70848709  0.21437046  0.66734958    -0.23000
C1748       C  0.70495138  0.19663737  0.65836321     0.19900
F1749       F  0.71407732  0.18883360  0.67212914    -0.13000
F1750       F  0.68939854  0.17009812  0.62604469    -0.15300
F1751       F  0.70218462  0.23933368  0.66090190    -0.15300
F1752       F  0.67849516  0.22124269  0.61360726    -0.13000
loop_ 
_geom_bond_atom_site_label_1 
_geom_bond_atom_site_label_2 
_geom_bond_distance 
_geom_bond_site_symmetry_2 
_ccdc_geom_bond_type 
N1            C6   1.355       .  A
N1            C5   1.356       .  A
N1           H33   1.037       .  S
N2            C9   1.352       .  A
N2           C10   1.351       .  A
N3            C8   1.355       .  A
N3            C7   1.355       .  A
N3           H34   1.036       .  S
N4           C11   1.352       .  A
N4           C12   1.353       .  A
C5           C13   1.388       .  A
C5           C21   1.420       .  A
C6           C22   1.419       .  A
C6           C14   1.387       .  A
C7           C15   1.388       .  A
C7           C24   1.420       .  A
C8           C23   1.419       .  A
C8           C16   1.386       .  A
C9           C21   1.414       .  A
C9           C17   1.386       .  A
C10          C24   1.415       .  A
C10          C18   1.387       .  A
C11          C19   1.386       .  A
C11          C22   1.415       .  A
C12          C20   1.386       .  A
C12          C23   1.415       .  A
C13          C14   1.374       .  A
C13          H25   1.082       .  S
C14          H26   1.082       .  S
C15          C16   1.373       .  A
C15          H27   1.082       .  S
C16          H28   1.082       .  S
C17          C18   1.371       .  A
C17          H29   1.082       .  S
C18          H30   1.082       .  S
C19          C20   1.374       .  A
C19          H31   1.082       .  S
C20          H32   1.082       .  S
C21         C838   1.490       .  S
C22         C871   1.492       .  S
C23         C861   1.492       .  S
C24         C851   1.486       .  S
N35          C39   1.348       .  A
N35          N36   1.320       .  A
N35         Cu43   2.078       .  S
N36          C37   1.343       .  A
N36         Cu42   2.066   1_554  S
C37          C38   1.384       .  A
C37          H40   1.082       .  S
C38          C39   1.388       .  A
C38         C811   1.483       .  S
C39          H41   1.082       .  S
Cu42        N921   2.066       .  S
Cu43         N53   2.079       .  S
Cu44         N46   2.086       .  S
Cu44         N52   2.087       .  S
N45          C49   1.340       .  A
N45          N46   1.321       .  A
N45        Cu918   2.059       .  S
N46          C47   1.350       .  A
C47          C48   1.390       .  A
C47          H50   1.082       .  S
C48          C49   1.381       .  A
C48         C821   1.482       .  S
C49          H51   1.082       .  S
N52          C56   1.347       .  A
N52         N929   1.324       .  A
N53          C54   1.345       .  A
N53         N928   1.324   1_554  A
C54          C55   1.385   1_554  A
C54          H57   1.082       .  S
C55         C932   1.386       .  A
C55        C1704   1.483       .  S
C56         C931   1.388       .  A
C56          H58   1.081       .  S
N59          C63   1.349       .  A
N59          N60   1.322       .  A
N59         Cu67   2.093       .  S
N60          C61   1.343       .  A
N60         Cu66   2.062       .  S
C61          C62   1.382       .  A
C61          H64   1.082       .  S
C62          C63   1.388       .  A
C62         C781   1.480       .  S
C63          H65   1.082       .  S
Cu66        N945   2.062       .  S
Cu67         N77   2.095       .  S
Cu68         N70   2.098       .  S
Cu68         N76   2.099       .  S
N69          C73   1.341       .  A
N69          N70   1.322       .  A
N69        Cu942   2.063       .  S
N70          C71   1.352       .  A
C71          C72   1.391       .  A
C71          H74   1.082       .  S
C72          C73   1.381       .  A
C72         C788   1.484       .  S
C73          H75   1.082       .  S
N76          C80   1.349       .  A
N76         N953   1.325   1_554  A
N77          C78   1.349       .  A
N77         N952   1.323       .  A
C78          C79   1.391       .  A
C78          H81   1.081       .  S
C79         C956   1.389       .  A
C79         C798   1.496       .  S
C80         C955   1.391       .  A
C80          H82   1.081       .  S
N83          C87   1.350       .  A
N83          N84   1.321       .  A
N83         Cu91   2.093       .  S
N84          C85   1.339       .  A
N84         Cu90   2.047       .  S
C85          C86   1.378       .  A
C85          H88   1.082       .  S
C86          C87   1.389       .  A
C86         C751   1.475       .  S
C87          H89   1.082       .  S
Cu90        N969   2.048   1_554  S
Cu91        N101   2.095       .  S
Cu92         N94   2.090       .  S
Cu92        N100   2.092       .  S
N93          C97   1.340       .  A
N93          N94   1.321       .  A
N93        Cu966   2.054       .  S
N94          C95   1.349       .  A
C95          C96   1.390       .  A
C95          H98   1.082       .  S
C96          C97   1.380       .  A
C96         C761   1.480       .  S
C97          H99   1.082       .  S
N100        C104   1.348       .  A
N100        N977   1.324       .  A
N101        C102   1.348       .  A
N101        N976   1.324   1_554  A
C102        C979   1.389       .  A
C102        H105   1.081       .  S
C103        C104   1.389       .  A
C103        C978   1.389       .  A
C103        C771   1.494       .  S
C104        H106   1.081       .  S
N107        C111   1.349       .  A
N107        N108   1.322       .  A
N107       Cu115   2.093       .  S
N108        C109   1.345       .  A
N108       Cu114   2.076   1_554  S
C109        C110   1.385       .  A
C109        H112   1.082       .  S
C110        C111   1.390       .  A
C110        C868   1.487       .  S
C111        H113   1.082       .  S
Cu114       N993   2.076       .  S
Cu115       N125   2.094       .  S
Cu116       N118   2.098       .  S
Cu116       N124   2.099       .  S
N117        C121   1.342       .  A
N117        N118   1.322       .  A
N117       Cu990   2.066       .  S
N118        C119   1.352       .  A
C119        C120   1.392       .  A
C119        H122   1.082       .  S
C120        C121   1.382       .  A
C120        C858   1.488       .  S
C121        H123   1.082       .  S
N124        C128   1.349       .  A
N124       N1001   1.324       .  A
N125        C126   1.348       .  A
N125       N1000   1.323   1_554  A
C126       C1003   1.391   1_554  A
C126        H129   1.081       .  S
C127        C128   1.391       .  A
C127       C1002   1.389       .  A
C127        C741   1.496       .  S
C128        H130   1.081       .  S
C131        C132   1.417       .  A
C131        C136   1.410   1_565  A
C131        C801   1.496       .  S
C132        C133   1.405   1_565  A
C132        C831   1.488       .  S
C133        C134   1.405       .  A
C133        H138   1.084       .  S
C134        C135   1.418       .  A
C134        C738   1.489       .  S
C135        C136   1.413       .  A
C135        C768   1.494       .  S
C136        H137   1.084       .  S
N139        C144   1.355       .  A
N139        C143   1.353       .  A
N139        H171   1.040       .  S
N140        C147   1.351       .  A
N140        C148   1.351       .  A
N141        C146   1.353       .  A
N141        C145   1.354       .  A
N141        H172   1.039       .  S
N142        C149   1.350       .  A
N142        C150   1.349       .  A
C143        C151   1.387       .  A
C143        C159   1.416       .  A
C144        C160   1.415       .  A
C144        C152   1.386       .  A
C145        C153   1.387       .  A
C145        C162   1.417       .  A
C146        C161   1.415       .  A
C146        C154   1.387       .  A
C147        C159   1.412       .  A
C147        C155   1.386       .  A
C148        C162   1.414       .  A
C148        C156   1.386       .  A
C149        C157   1.386       .  A
C149        C160   1.410       .  A
C150        C158   1.386       .  A
C150        C161   1.409       .  A
C151        C152   1.376       .  A
C151        H163   1.082       .  S
C152        H164   1.082       .  S
C153        C154   1.376       .  A
C153        H165   1.082       .  S
C154        H166   1.082       .  S
C155        C156   1.375       .  A
C155        H167   1.082       .  S
C156        H168   1.082       .  S
C157        C158   1.373       .  A
C157        H169   1.082       .  S
C158        H170   1.082       .  S
C159        C718   1.491       .  S
C160        C711   1.490       .  S
C161        C701   1.482       .  S
C162        C728   1.492       .  S
N173        C178   1.354       .  A
N173        C177   1.354       .  A
N173        H205   1.038       .  S
N174        C181   1.351       .  A
N174        C182   1.351       .  A
N175        C180   1.354       .  A
N175        C179   1.355       .  A
N175        H206   1.037       .  S
N176        C183   1.352       .  A
N176        C184   1.351       .  A
C177        C185   1.387       .  A
C177        C193   1.416       .  A
C178        C194   1.416       .  A
C178        C186   1.387       .  A
C179        C187   1.387       .  A
C179        C196   1.419       .  A
C180        C195   1.419       .  A
C180        C188   1.387       .  A
C181        C193   1.412       .  A
C181        C189   1.386       .  A
C182        C196   1.413       .  A
C182        C190   1.386       .  A
C183        C191   1.386       .  A
C183        C194   1.413       .  A
C184        C192   1.387       .  A
C184        C195   1.413       .  A
C185        C186   1.374       .  A
C185        H197   1.082       .  S
C186        H198   1.082       .  S
C187        C188   1.377       .  A
C187        H199   1.082       .  S
C188        H200   1.082       .  S
C189        C190   1.373       .  A
C189        H201   1.082       .  S
C190        H202   1.082       .  S
C191        C192   1.372       .  A
C191        H203   1.082       .  S
C192        H204   1.082       .  S
C193        C778   1.487       .  S
C194        C688   1.489       .  S
C195        C681   1.488       .  S
C196        C791   1.490       .  S
N207        C211   1.351       .  A
N207        N208   1.320       .  A
N207       Cu215   2.086       .  S
N208        C209   1.338       .  A
N208      Cu1090   2.049   1_554  S
C209        C210   1.379       .  A
C209        H212   1.082       .  S
C210        C211   1.391       .  A
C210        C731   1.480       .  S
C211        H213   1.082       .  S
Cu214       N217   2.058       .  S
Cu214      N1084   2.057       .  S
Cu215       N225   2.088       .  S
Cu216       N218   2.096       .  S
Cu216       N224   2.099       .  S
N217        C221   1.341       .  A
N217        N218   1.321       .  A
N218        C219   1.351       .  A
C219        C220   1.390       .  A
C219        H222   1.082       .  S
C220        C221   1.381       .  A
C220        C721   1.482       .  S
C221        H223   1.082       .  S
N224        C228   1.349       .  A
N224       N1101   1.325       .  A
N225        C226   1.345       .  A
N225       N1100   1.325   1_554  A
C226       C1103   1.386   1_554  A
C226        H229   1.081       .  S
C227        C228   1.390       .  A
C227       C1102   1.390       .  A
C227        C668   1.498       .  S
C228        H230   1.081       .  S
N231        C235   1.349       .  A
N231        N232   1.320       .  A
N231       Cu239   2.087       .  S
N232        C233   1.340       .  A
N232       Cu238   2.053       .  S
C233        C234   1.381       .  A
C233        H236   1.082       .  S
C234        C235   1.390       .  A
C234        C691   1.481       .  S
C235        H237   1.082       .  S
Cu238      N1117   2.053       .  S
Cu239       N249   2.088       .  S
Cu240       N242   2.090       .  S
Cu240       N248   2.091       .  S
N241        C245   1.342       .  A
N241        N242   1.321       .  A
N241      Cu1114   2.062       .  S
N242        C243   1.349       .  A
C243        C244   1.389       .  A
C243        H246   1.082       .  S
C244        C245   1.382       .  A
C244        C678   1.482       .  S
C245        H247   1.082       .  S
N248        C252   1.347       .  A
N248       N1125   1.323   1_554  A
N249        C250   1.346       .  A
N249       N1124   1.323       .  A
C250        C251   1.389       .  A
C250        H253   1.081       .  S
C251       C1128   1.389       .  A
C251        C658   1.492       .  S
C252       C1127   1.390       .  A
C252        H254   1.081       .  S
N255        C259   1.348       .  A
N255        N256   1.322       .  A
N255       Cu263   2.075       .  S
N256        C257   1.343       .  A
N256      Cu1138   2.076       .  S
C257        C258   1.381       .  A
C257        H260   1.082       .  S
C258        C259   1.384       .  A
C258        C841   1.475       .  S
C259        H261   1.082       .  S
Cu262       N265   2.081       .  S
Cu262      N1132   2.082       .  S
Cu263       N273   2.075       .  S
Cu264       N266   2.071       .  S
Cu264       N272   2.072       .  S
N265        C269   1.345       .  A
N265        N266   1.322       .  A
N266        C267   1.346       .  A
C267        C268   1.383       .  A
C267        H270   1.082       .  S
C268        C269   1.384       .  A
C268        C848   1.475       .  S
C269        H271   1.082       .  S
N272        C276   1.346       .  A
N272       N1149   1.322       .  A
N273        C274   1.344       .  A
N273       N1148   1.322   1_554  A
C274       C1151   1.386   1_554  A
C274        H277   1.081       .  S
C275        C276   1.386       .  A
C275       C1150   1.387       .  A
C275        C648   1.486       .  S
C276        H278   1.082       .  S
N279        C283   1.347       .  A
N279        N280   1.321       .  A
N279       Cu287   2.080       .  S
N280        C281   1.341       .  A
N280       Cu286   2.055       .  S
C281        C282   1.381       .  A
C281        H284   1.082       .  S
C282        C283   1.387       .  A
C282        C618   1.476       .  S
C283        H285   1.082       .  S
Cu286      N1165   2.054       .  S
Cu287       N297   2.082       .  S
Cu288       N290   2.098       .  S
Cu288       N296   2.099       .  S
N289        C293   1.340       .  A
N289        N290   1.320       .  A
N289      Cu1162   2.050       .  S
N290        C291   1.351       .  A
C291        C292   1.394       .  A
C291        H294   1.082       .  S
C292        C293   1.381       .  A
C292        C628   1.485       .  S
C293        H295   1.082       .  S
N296        C300   1.346       .  A
N296       N1173   1.324   1_554  A
N297        C298   1.346       .  A
N297       N1172   1.323       .  A
C298        C299   1.391       .  A
C298        H301   1.080       .  S
C299       C1176   1.391       .  A
C299        C638   1.497       .  S
C300       C1175   1.390   1_554  A
C300        H302   1.081       .  S
C303        C304   1.414       .  A
C303        C308   1.403   1_455  A
C303        C661   1.481       .  S
C304        C305   1.406       .  A
C304        C671   1.493       .  S
C305        C306   1.411   1_455  A
C305        H310   1.084       .  S
C306        C307   1.420       .  A
C306        C651   1.491       .  S
C307        C308   1.404       .  A
C307        C641   1.489       .  S
C308        H309   1.084       .  S
N311        C316   1.351       .  A
N311        C315   1.351       .  A
N311        H343   1.039       .  S
N312        C319   1.350       .  A
N312        C320   1.349       .  A
N313        C318   1.353       .  A
N313        C317   1.354       .  A
N313        H344   1.038       .  S
N314        C321   1.352       .  A
N314        C322   1.352       .  A
C315        C323   1.386       .  A
C315        C331   1.413       .  A
C316        C332   1.412       .  A
C316        C324   1.387       .  A
C317        C325   1.387       .  A
C317        C334   1.417       .  A
C318        C333   1.417       .  A
C318        C326   1.387       .  A
C319        C331   1.410       .  A
C319        C327   1.386       .  A
C320        C334   1.410       .  A
C320        C328   1.386       .  A
C321        C329   1.385       .  A
C321        C332   1.412       .  A
C322        C330   1.386       .  A
C322        C333   1.414       .  A
C323        C324   1.375       .  A
C323        H335   1.082       .  S
C324        H336   1.082       .  S
C325        C326   1.376       .  A
C325        H337   1.082       .  S
C326        H338   1.082       .  S
C327        C328   1.373       .  A
C327        H339   1.082       .  S
C328        H340   1.082       .  S
C329        C330   1.374       .  A
C329        H341   1.082       .  S
C330        H342   1.082       .  S
C331        C758   1.484       .  S
C332        C598   1.484       .  S
C333        C608   1.491       .  S
C334        C748   1.485       .  S
N345        C350   1.351       .  A
N345        C349   1.351       .  A
N345        H377   1.039       .  S
N346        C353   1.350       .  A
N346        C354   1.349       .  A
N347        C352   1.354       .  A
N347        C351   1.354       .  A
N347        H378   1.040       .  S
N348        C355   1.351       .  A
N348        C356   1.350       .  A
C349        C357   1.387       .  A
C349        C365   1.412       .  A
C350        C366   1.413       .  A
C350        C358   1.387       .  A
C351        C359   1.387       .  A
C351        C368   1.417       .  A
C352        C367   1.417       .  A
C352        C360   1.387       .  A
C353        C365   1.410       .  A
C353        C361   1.386       .  A
C354        C368   1.411       .  A
C354        C362   1.386       .  A
C355        C363   1.385       .  A
C355        C366   1.410       .  A
C356        C364   1.387       .  A
C356        C367   1.412       .  A
C357        C358   1.374       .  A
C357        H369   1.082       .  S
C358        H370   1.082       .  S
C359        C360   1.376       .  A
C359        H371   1.082       .  S
C360        H372   1.082       .  S
C361        C362   1.375       .  A
C361        H373   1.082       .  S
C362        H374   1.082       .  S
C363        C364   1.374       .  A
C363        H375   1.082       .  S
C364        H376   1.082       .  S
C365        C621   1.481       .  S
C366        C588   1.484       .  S
C367        C581   1.494       .  S
C368        C631   1.490       .  S
N379        C384   1.354       .  A
N379        C383   1.355       .  A
N379        H411   1.038       .  S
N380        C387   1.352       .  A
N380        C388   1.351       .  A
N381        C386   1.355       .  A
N381        C385   1.354       .  A
N381        H412   1.038       .  S
N382        C389   1.353       .  A
N382        C390   1.353       .  A
C383        C391   1.387       .  A
C383        C399   1.418       .  A
C384        C400   1.418       .  A
C384        C392   1.387       .  A
C385        C393   1.387       .  A
C385        C402   1.418       .  A
C386        C401   1.419       .  A
C386        C394   1.387       .  A
C387        C399   1.413       .  A
C387        C395   1.386       .  A
C388        C402   1.413       .  A
C388        C396   1.386       .  A
C389        C397   1.386       .  A
C389        C400   1.416       .  A
C390        C398   1.386       .  A
C390        C401   1.415       .  A
C391        C392   1.376       .  A
C391        H403   1.082       .  S
C392        H404   1.082       .  S
C393        C394   1.376       .  A
C393        H405   1.082       .  S
C394        H406   1.082       .  S
C395        C396   1.373       .  A
C395        H407   1.082       .  S
C396        H408   1.082       .  S
C397        C398   1.374       .  A
C397        H409   1.082       .  S
C398        H410   1.082       .  S
C399        C818   1.491       .  S
C400        C561   1.492       .  S
C401        C568   1.492       .  S
C402        C808   1.489       .  S
N413        C417   1.347       .  A
N413        N414   1.320       .  A
N413       Cu421   2.072       .  S
N414        C415   1.341       .  A
N414      Cu1296   2.061   1_554  S
C415        C416   1.383       .  A
C415        H418   1.082       .  S
C416        C417   1.387       .  A
C416        C698   1.479       .  S
C417        H419   1.082       .  S
Cu420       N423   2.059       .  S
Cu420      N1290   2.060       .  S
Cu421       N431   2.074       .  S
Cu422       N424   2.081       .  S
Cu422       N430   2.082       .  S
N423        C427   1.339       .  A
N423        N424   1.320       .  A
N424        C425   1.349       .  A
C425        C426   1.392       .  A
C425        H428   1.081       .  S
C426        C427   1.383       .  A
C426        C708   1.487       .  S
C427        H429   1.081       .  S
N430        C434   1.344       .  A
N430       N1307   1.324       .  A
N431        C432   1.345       .  A
N431       N1306   1.323   1_554  A
C432       C1309   1.386       .  A
C432        H435   1.081       .  S
C433        C434   1.387       .  A
C433       C1308   1.387       .  A
C433        C548   1.488       .  S
C434        H436   1.081       .  S
N437        C441   1.351       .  A
N437        N438   1.321       .  A
N437       Cu445   2.094       .  S
N438        C439   1.341       .  A
N438       Cu444   2.060   1_554  S
C439        C440   1.380       .  A
C439        H442   1.082       .  S
C440        C441   1.391       .  A
C440        C571   1.482       .  S
C441        H443   1.082       .  S
Cu444      N1323   2.060       .  S
Cu445       N455   2.095       .  S
Cu446       N448   2.089       .  S
Cu446       N454   2.090       .  S
N447        C451   1.345       .  A
N447        N448   1.321       .  A
N447      Cu1320   2.072       .  S
N448        C449   1.348       .  A
C449        C450   1.390       .  A
C449        H452   1.081       .  S
C450        C451   1.386       .  A
C450        C558   1.489       .  S
C451        H453   1.082       .  S
N454        C458   1.347       .  A
N454       N1331   1.323       .  A
N455        C456   1.345       .  A
N455       N1330   1.323   1_554  A
C456       C1333   1.390   1_554  A
C456        H459   1.081       .  S
C457        C458   1.392       .  A
C457       C1332   1.392       .  A
C457        C541   1.501       .  S
C458        H460   1.080       .  S
N461        C465   1.349       .  A
N461        N462   1.321       .  A
N461       Cu469   2.093       .  S
N462        C463   1.343       .  A
N462       Cu468   2.063       .  S
C463        C464   1.382       .  A
C463        H466   1.082       .  S
C464        C465   1.390       .  A
C464        C611   1.483       .  S
C465        H467   1.082       .  S
Cu468      N1347   2.064   1_554  S
Cu469       N479   2.094       .  S
Cu470       N472   2.074       .  S
Cu470       N478   2.075       .  S
N471        C475   1.341       .  A
N471        N472   1.320       .  A
N471      Cu1344   2.064       .  S
N472        C473   1.348       .  A
C473        C474   1.388       .  A
C473        H476   1.082       .  S
C474        C475   1.384       .  A
C474        C601   1.481       .  S
C475        H477   1.082       .  S
N478        C482   1.344       .  A
N478       N1355   1.324       .  A
N479        C480   1.349       .  A
N479       N1354   1.324   1_554  A
C480       C1357   1.389       .  A
C480        H483   1.082       .  S
C481        C482   1.386       .  A
C481       C1356   1.391       .  A
C481        C528   1.491       .  S
C482        H484   1.081       .  S
N485        C489   1.348       .  A
N485        N486   1.321       .  A
N485       Cu493   2.082       .  S
N486        C487   1.340       .  A
N486       Cu492   2.052       .  S
C487        C488   1.381       .  A
C487        H490   1.082       .  S
C488        C489   1.387       .  A
C488        C591   1.477       .  S
C489        H491   1.082       .  S
Cu492      N1371   2.051       .  S
Cu493       N503   2.085       .  S
Cu494       N496   2.088       .  S
Cu494       N502   2.090       .  S
N495        C499   1.338       .  A
N495        N496   1.320       .  A
N495      Cu1368   2.044   1_554  S
N496        C497   1.350       .  A
C497        C498   1.391       .  A
C497        H500   1.082       .  S
C498        C499   1.378       .  A
C498        C578   1.477       .  S
C499        H501   1.082       .  S
N502        C506   1.346       .  A
N502       N1379   1.325   1_554  A
N503        C504   1.347       .  A
N503       N1378   1.323       .  A
C504        C505   1.388       .  A
C504        H507   1.081       .  S
C505       C1382   1.387       .  A
C505        C518   1.490       .  S
C506       C1381   1.385   1_554  A
C506        H508   1.082       .  S
C509        C510   1.415       .  A
C509        C514   1.408       .  A
C509        C538   1.491       .  S
C510        C511   1.403       .  A
C510        C551   1.483       .  S
C511        C512   1.402       .  A
C511        H516   1.085       .  S
C512        C513   1.416       .  A
C512        C531   1.486       .  S
C513        C514   1.410       .  A
C513        C521   1.490       .  S
C514        H515   1.084       .  S
C517        C518   1.410       .  A
C517        C522   1.401       .  A
C517        F524   1.357       .  S
C518       C1395   1.410       .  A
C519        C520   1.400       .  A
C519       C1394   1.408   1_554  A
C519        F526   1.358       .  S
C520       C1397   1.405   1_554  A
C520        F525   1.358       .  S
C521        C522   1.407       .  A
C521       C1396   1.404       .  A
C522        F523   1.357       .  S
C527        C528   1.411       .  A
C527        C532   1.402       .  A
C527        F534   1.357       .  S
C528       C1405   1.412       .  A
C529        C530   1.397       .  A
C529       C1404   1.409   1_556  A
C529        F536   1.357       .  S
C530       C1407   1.404   1_556  A
C530        F535   1.358       .  S
C531        C532   1.404       .  A
C531       C1406   1.403       .  A
C532        F533   1.358       .  S
C537        C542   1.399       .  A
C537       C1414   1.400   1_554  A
C537        F544   1.358       .  S
C538        C539   1.404       .  A
C538       C1413   1.403       .  A
C539        C540   1.402       .  A
C539        F546   1.358       .  S
C540        C541   1.414       .  A
C540        F545   1.356       .  S
C541       C1418   1.414       .  A
C542       C1417   1.412   1_554  A
C542        F543   1.356       .  S
C547        C548   1.411       .  A
C547        C552   1.398       .  A
C547        F554   1.357       .  S
C548       C1425   1.411       .  A
C549        C550   1.400       .  A
C549       C1424   1.411       .  A
C549        F556   1.357       .  S
C550       C1427   1.403   1_554  A
C550        F555   1.358       .  S
C551        C552   1.403       .  A
C551       C1426   1.404       .  A
C552        F553   1.358       .  S
C557        C558   1.410       .  A
C557        C562   1.400       .  A
C557        F564   1.357       .  S
C558        C559   1.410       .  A
C559        C560   1.402       .  A
C559        F566   1.357       .  S
C560        C561   1.405       .  A
C560        F565   1.358       .  S
C561        C562   1.404       .  A
C562        F563   1.358       .  S
C567        C568   1.404       .  A
C567        C572   1.399       .  A
C567        F574   1.358       .  S
C568        C569   1.406       .  A
C569        C570   1.404       .  A
C569        F576   1.357       .  S
C570        C571   1.407       .  A
C570        F575   1.357       .  S
C571        C572   1.408       .  A
C572        F573   1.358       .  S
C577        C578   1.405       .  A
C577        C582   1.402       .  A
C577        F584   1.358       .  S
C578        C579   1.406       .  A
C579        C580   1.395       .  A
C579        F586   1.358       .  S
C580        C581   1.406       .  A
C580        F585   1.358       .  S
C581        C582   1.410       .  A
C582        F583   1.358       .  S
C587        C588   1.405       .  A
C587        C592   1.401       .  A
C587        F594   1.358       .  S
C588        C589   1.403       .  A
C589        C590   1.393       .  A
C589        F596   1.358       .  S
C590        C591   1.407       .  A
C590        F595   1.358       .  S
C591        C592   1.407       .  A
C592        F593   1.357       .  S
C597        C598   1.402       .  A
C597        C602   1.394       .  A
C597        F604   1.358       .  S
C598        C599   1.404       .  A
C599        C600   1.403       .  A
C599        F606   1.358       .  S
C600        C601   1.410       .  A
C600        F605   1.357       .  S
C601        C602   1.408       .  A
C602        F603   1.358       .  S
C607        C608   1.405       .  A
C607        C612   1.400       .  A
C607        F614   1.358       .  S
C608        C609   1.405       .  A
C609        C610   1.401       .  A
C609        F616   1.358       .  S
C610        C611   1.407       .  A
C610        F615   1.357       .  S
C611        C612   1.409       .  A
C612        F613   1.358       .  S
C617        C618   1.407       .  A
C617        C622   1.395       .  A
C617        F624   1.358       .  S
C618        C619   1.408       .  A
C619        C620   1.400       .  A
C619        F626   1.357       .  S
C620        C621   1.403       .  A
C620        F625   1.358       .  S
C621        C622   1.402       .  A
C622        F623   1.358       .  S
C627        C628   1.411       .  A
C627        C632   1.398       .  A
C627        F634   1.358       .  S
C628        C629   1.408       .  A
C629        C630   1.401       .  A
C629        F636   1.357       .  S
C630        C631   1.406       .  A
C630        F635   1.358       .  S
C631        C632   1.404       .  A
C632        F633   1.358       .  S
C637        C638   1.413       .  A
C637        C642   1.401       .  A
C637        F644   1.356       .  S
C638       C1515   1.413       .  A
C639        C640   1.400       .  A
C639       C1514   1.410   1_554  A
C639        F646   1.357       .  S
C640       C1517   1.405   1_554  A
C640        F645   1.358       .  S
C641        C642   1.402       .  A
C641       C1516   1.405       .  A
C642        F643   1.358       .  S
C647        C648   1.407       .  A
C647        C652   1.399       .  A
C647        F654   1.357       .  S
C648       C1525   1.409       .  A
C649        C650   1.401       .  A
C649       C1524   1.409       .  A
C649        F656   1.357       .  S
C650       C1527   1.406       .  A
C650        F655   1.358       .  S
C651        C652   1.407       .  A
C651       C1526   1.407       .  A
C652        F653   1.357       .  S
C657        C662   1.401       .  A
C657       C1534   1.412   1_556  A
C657        F664   1.357       .  S
C658        C659   1.412       .  A
C658       C1533   1.412       .  A
C659        C660   1.398       .  A
C659        F666   1.356       .  S
C660        C661   1.402       .  A
C660        F665   1.358       .  S
C661       C1538   1.402       .  A
C662       C1537   1.403   1_556  A
C662        F663   1.358       .  S
C667        C672   1.401       .  A
C667       C1544   1.411   1_554  A
C667        F674   1.357       .  S
C668        C669   1.412       .  A
C668       C1543   1.413       .  A
C669        C670   1.404       .  A
C669        F676   1.357       .  S
C670        C671   1.406       .  A
C670        F675   1.358       .  S
C671       C1548   1.403       .  A
C672       C1547   1.404   1_554  A
C672        F673   1.358       .  S
C677        C678   1.408       .  A
C677        C682   1.397       .  A
C677        F684   1.358       .  S
C678        C679   1.408       .  A
C679        C680   1.403       .  A
C679        F686   1.357       .  S
C680        C681   1.406       .  A
C680        F685   1.358       .  S
C681        C682   1.403       .  A
C682        F683   1.358       .  S
C687        C688   1.404       .  A
C687        C692   1.397       .  A
C687        F694   1.358       .  S
C688        C689   1.406       .  A
C689        C690   1.401       .  A
C689        F696   1.357       .  S
C690        C691   1.407       .  A
C690        F695   1.357       .  S
C691        C692   1.409       .  A
C692        F693   1.358       .  S
C697        C698   1.409       .  A
C697        C702   1.401       .  A
C697        F704   1.357       .  S
C698        C699   1.408       .  A
C699        C700   1.395       .  A
C699        F706   1.358       .  S
C700        C701   1.401       .  A
C700        F705   1.358       .  S
C701        C702   1.404       .  A
C702        F703   1.358       .  S
C707        C708   1.411       .  A
C707        C712   1.396       .  A
C707        F714   1.357       .  S
C708        C709   1.410       .  A
C709        C710   1.401       .  A
C709        F716   1.357       .  S
C710        C711   1.406       .  A
C710        F715   1.358       .  S
C711        C712   1.403       .  A
C712        F713   1.358       .  S
C717        C718   1.405       .  A
C717        C722   1.397       .  A
C717        F724   1.358       .  S
C718        C719   1.407       .  A
C719        C720   1.403       .  A
C719        F726   1.358       .  S
C720        C721   1.407       .  A
C720        F725   1.357       .  S
C721        C722   1.407       .  A
C722        F723   1.358       .  S
C727        C728   1.405       .  A
C727        C732   1.395       .  A
C727        F734   1.358       .  S
C728        C729   1.408       .  A
C729        C730   1.403       .  A
C729        F736   1.357       .  S
C730        C731   1.406       .  A
C730        F735   1.358       .  S
C731        C732   1.408       .  A
C732        F733   1.358       .  S
C737        C742   1.403       .  A
C737       C1614   1.405       .  A
C737        F744   1.358       .  S
C738        C739   1.404       .  A
C738       C1613   1.404       .  A
C739        C740   1.403       .  A
C739        F746   1.358       .  S
C740        C741   1.412       .  A
C740        F745   1.356       .  S
C741       C1618   1.413       .  A
C742       C1617   1.412   1_554  A
C742        F743   1.357       .  S
C747        C748   1.406       .  A
C747        C752   1.401       .  A
C747        F754   1.358       .  S
C748        C749   1.402       .  A
C749        C750   1.396       .  A
C749        F756   1.358       .  S
C750        C751   1.407       .  A
C750        F755   1.358       .  S
C751        C752   1.406       .  A
C752        F753   1.358       .  S
C757        C758   1.403       .  A
C757        C762   1.396       .  A
C757        F764   1.358       .  S
C758        C759   1.404       .  A
C759        C760   1.400       .  A
C759        F766   1.358       .  S
C760        C761   1.407       .  A
C760        F765   1.357       .  S
C761        C762   1.409       .  A
C762        F763   1.358       .  S
C767        C768   1.408       .  A
C767        C772   1.402       .  A
C767        F774   1.357       .  S
C768       C1645   1.405       .  A
C769        C770   1.403       .  A
C769       C1644   1.406   1_556  A
C769        F776   1.358       .  S
C770       C1647   1.411   1_556  A
C770        F775   1.357       .  S
C771        C772   1.410       .  A
C771       C1646   1.411       .  A
C772        F773   1.357       .  S
C777        C778   1.405       .  A
C777        C782   1.401       .  A
C777        F784   1.358       .  S
C778        C779   1.404       .  A
C779        C780   1.399       .  A
C779        F786   1.358       .  S
C780        C781   1.408       .  A
C780        F785   1.358       .  S
C781        C782   1.407       .  A
C782        F783   1.357       .  S
C787        C788   1.409       .  A
C787        C792   1.398       .  A
C787        F794   1.358       .  S
C788        C789   1.408       .  A
C789        C790   1.404       .  A
C789        F796   1.357       .  S
C790        C791   1.407       .  A
C790        F795   1.358       .  S
C791        C792   1.402       .  A
C792        F793   1.358       .  S
C797        C798   1.411       .  A
C797        C802   1.405       .  A
C797        F804   1.357       .  S
C798       C1675   1.411       .  A
C799        C800   1.404       .  A
C799       C1674   1.412       .  A
C799        F806   1.357       .  S
C800       C1677   1.406       .  A
C800        F805   1.358       .  S
C801        C802   1.406       .  A
C801       C1676   1.407       .  A
C802        F803   1.357       .  S
C807        C808   1.406       .  A
C807        C812   1.402       .  A
C807        F814   1.358       .  S
C808        C809   1.403       .  A
C809        C810   1.397       .  A
C809        F816   1.358       .  S
C810        C811   1.408       .  A
C810        F815   1.357       .  S
C811        C812   1.409       .  A
C812        F813   1.357       .  S
C817        C818   1.408       .  A
C817        C822   1.404       .  A
C817        F824   1.358       .  S
C818        C819   1.403       .  A
C819        C820   1.396       .  A
C819        F826   1.358       .  S
C820        C821   1.408       .  A
C820        F825   1.358       .  S
C821        C822   1.408       .  A
C822        F823   1.358       .  S
C827        C832   1.400       .  A
C827       C1704   1.408   1_554  A
C827        F834   1.357       .  S
C828        C829   1.409       .  A
C828       C1703   1.409       .  A
C828        C931   1.486       .  S
C829        C830   1.400       .  A
C829        F836   1.357       .  S
C830        C831   1.407       .  A
C830        F835   1.357       .  S
C831       C1708   1.404       .  A
C832       C1707   1.405   1_554  A
C832        F833   1.358       .  S
C837        C838   1.407       .  A
C837        C842   1.403       .  A
C837        F844   1.358       .  S
C838        C839   1.404       .  A
C839        C840   1.398       .  A
C839        F846   1.357       .  S
C840        C841   1.404       .  A
C840        F845   1.358       .  S
C841        C842   1.406       .  A
C842        F843   1.358       .  S
C847        C848   1.406       .  A
C847        C852   1.399       .  A
C847        F854   1.358       .  S
C848        C849   1.405       .  A
C849        C850   1.399       .  A
C849        F856   1.358       .  S
C850        C851   1.405       .  A
C850        F855   1.358       .  S
C851        C852   1.404       .  A
C852        F853   1.358       .  S
C857        C858   1.411       .  A
C857        C862   1.400       .  A
C857        F864   1.358       .  S
C858        C859   1.409       .  A
C859        C860   1.403       .  A
C859        F866   1.357       .  S
C860        C861   1.406       .  A
C860        F865   1.358       .  S
C861        C862   1.403       .  A
C862        F863   1.358       .  S
C867        C868   1.409       .  A
C867        C872   1.403       .  A
C867        F874   1.357       .  S
C868        C869   1.409       .  A
C869        C870   1.400       .  A
C869        F876   1.358       .  S
C870        C871   1.404       .  A
C870        F875   1.358       .  S
C871        C872   1.405       .  A
C872        F873   1.358       .  S
N877        C882   1.356       .  A
N877        C881   1.357       .  A
N877        H909   1.035       .  S
N878        C885   1.353       .  A
N878        C886   1.353       .  A
N879        C884   1.356       .  A
N879        C883   1.355       .  A
N879        H910   1.036       .  S
N880        C887   1.354       .  A
N880        C888   1.355       .  A
C881        C889   1.386       .  A
C881        C897   1.423       .  A
C882        C898   1.424       .  A
C882        C890   1.389       .  A
C883        C891   1.387       .  A
C883        C900   1.420       .  A
C884        C899   1.422       .  A
C884        C892   1.388       .  A
C885        C897   1.416       .  A
C885        C893   1.386       .  A
C886        C900   1.416       .  A
C886        C894   1.386       .  A
C887        C895   1.387       .  A
C887        C898   1.420       .  A
C888        C896   1.386       .  A
C888        C899   1.419       .  A
C889        C890   1.374       .  A
C889        H901   1.082       .  S
C890        H902   1.081       .  S
C891        C892   1.375       .  A
C891        H903   1.082       .  S
C892        H904   1.081       .  S
C893        C894   1.373       .  A
C893        H905   1.082       .  S
C894        H906   1.082       .  S
C895        C896   1.373       .  A
C895        H907   1.082       .  S
C896        H908   1.082       .  S
C897       C1714   1.497       .  S
C898       C1747   1.493       .  S
C899       C1737   1.496       .  S
C900       C1727   1.490       .  S
N911        C915   1.348       .  A
N911        N912   1.320       .  A
N911       Cu919   2.075       .  S
N912        C913   1.341       .  A
N912       Cu918   2.058       .  S
C913        C914   1.381       .  A
C913        H916   1.082       .  S
C914        C915   1.387       .  A
C914       C1687   1.476       .  S
C915        H917   1.082       .  S
Cu919       N929   2.077       .  S
Cu920       N922   2.082       .  S
Cu920       N928   2.083       .  S
N921        C925   1.340       .  A
N921        N922   1.321       .  A
N922        C923   1.350       .  A
C923        C924   1.391       .  A
C923        H926   1.082       .  S
C924        C925   1.384       .  A
C924       C1697   1.487       .  S
C925        H927   1.081       .  S
N928        C932   1.345       .  A
N929        C930   1.344       .  A
C930        C931   1.385       .  A
C930        H933   1.082       .  S
C932        H934   1.082       .  S
N935        C939   1.351       .  A
N935        N936   1.321       .  A
N935       Cu943   2.102       .  S
N936        C937   1.343       .  A
N936       Cu942   2.062   1_556  S
C937        C938   1.381       .  A
C937        H940   1.082       .  S
C938        C939   1.391       .  A
C938       C1657   1.483       .  S
C939        H941   1.082       .  S
Cu943       N953   2.104       .  S
Cu944       N946   2.089       .  S
Cu944       N952   2.091       .  S
N945        C949   1.341       .  A
N945        N946   1.321       .  A
N946        C947   1.349       .  A
C947        C948   1.389       .  A
C947        H950   1.082       .  S
C948        C949   1.382       .  A
C948       C1664   1.481       .  S
C949        H951   1.082       .  S
N952        C956   1.347       .  A
N953        C954   1.349       .  A
C954        C955   1.391   1_556  A
C954        H957   1.081       .  S
C955       C1674   1.499       .  S
C956        H958   1.081       .  S
N959        C963   1.350       .  A
N959        N960   1.321       .  A
N959       Cu967   2.091       .  S
N960        C961   1.341       .  A
N960       Cu966   2.054       .  S
C961        C962   1.380       .  A
C961        H964   1.082       .  S
C962        C963   1.390       .  A
C962       C1627   1.480       .  S
C963        H965   1.082       .  S
Cu967       N977   2.093       .  S
Cu968       N970   2.091       .  S
Cu968       N976   2.093       .  S
N969        C973   1.340       .  A
N969        N970   1.320       .  A
N970        C971   1.349       .  A
C971        C972   1.390       .  A
C971        H974   1.082       .  S
C972        C973   1.381       .  A
C972       C1637   1.481       .  S
C973        H975   1.082       .  S
N976        C980   1.348       .  A
N977        C978   1.347       .  A
C978        H981   1.081       .  S
C979        C980   1.389   1_554  A
C979       C1647   1.494       .  S
C980        H982   1.081       .  S
N983        C987   1.350       .  A
N983        N984   1.321       .  A
N983       Cu991   2.088       .  S
N984        C985   1.344       .  A
N984       Cu990   2.065       .  S
C985        C986   1.382       .  A
C985        H988   1.082       .  S
C986        C987   1.389       .  A
C986       C1744   1.481       .  S
C987        H989   1.082       .  S
Cu991      N1001   2.089       .  S
Cu992       N994   2.083       .  S
Cu992      N1000   2.083       .  S
N993        C997   1.344       .  A
N993        N994   1.322       .  A
N994        C995   1.349       .  A
C995        C996   1.386       .  A
C995        H998   1.082       .  S
C996        C997   1.382       .  A
C996       C1734   1.479       .  S
C997        H999   1.082       .  S
N1000      C1004   1.346       .  A
N1001      C1002   1.346       .  A
C1002      H1005   1.081       .  S
C1003      C1004   1.389       .  A
C1003      C1617   1.496       .  S
C1004      H1006   1.081       .  S
C1007      C1008   1.418       .  A
C1007      C1012   1.408   1_565  A
C1007      C1677   1.496       .  S
C1008      C1009   1.406   1_565  A
C1008      C1707   1.488   1_554  S
C1009      C1010   1.404       .  A
C1009      H1014   1.084       .  S
C1010      C1011   1.419       .  A
C1010      C1614   1.489       .  S
C1011      C1012   1.411       .  A
C1011      C1644   1.493       .  S
C1012      H1013   1.084       .  S
N1015      C1020   1.353       .  A
N1015      C1019   1.353       .  A
N1015      H1047   1.040       .  S
N1016      C1023   1.351       .  A
N1016      C1024   1.351       .  A
N1017      C1022   1.353       .  A
N1017      C1021   1.355       .  A
N1017      H1048   1.039       .  S
N1018      C1025   1.351       .  A
N1018      C1026   1.351       .  A
C1019      C1027   1.386       .  A
C1019      C1035   1.414       .  A
C1020      C1036   1.415       .  A
C1020      C1028   1.387       .  A
C1021      C1029   1.387       .  A
C1021      C1038   1.417       .  A
C1022      C1037   1.417       .  A
C1022      C1030   1.387       .  A
C1023      C1035   1.411       .  A
C1023      C1031   1.386       .  A
C1024      C1038   1.411       .  A
C1024      C1032   1.386       .  A
C1025      C1033   1.386       .  A
C1025      C1036   1.413       .  A
C1026      C1034   1.387       .  A
C1026      C1037   1.414       .  A
C1027      C1028   1.376       .  A
C1027      H1039   1.082       .  S
C1028      H1040   1.082       .  S
C1029      C1030   1.377       .  A
C1029      H1041   1.082       .  S
C1030      H1042   1.082       .  S
C1031      C1032   1.374       .  A
C1031      H1043   1.082       .  S
C1032      H1044   1.082       .  S
C1033      C1034   1.376       .  A
C1033      H1045   1.082       .  S
C1034      H1046   1.082       .  S
C1035      C1594   1.490       .  S
C1036      C1587   1.490       .  S
C1037      C1577   1.488       .  S
C1038      C1604   1.490       .  S
N1049      C1054   1.353       .  A
N1049      C1053   1.355       .  A
N1049      H1081   1.037       .  S
N1050      C1057   1.353       .  A
N1050      C1058   1.352       .  A
N1051      C1056   1.354       .  A
N1051      C1055   1.352       .  A
N1051      H1082   1.038       .  S
N1052      C1059   1.349       .  A
N1052      C1060   1.350       .  A
C1053      C1061   1.386       .  A
C1053      C1069   1.417       .  A
C1054      C1070   1.418       .  A
C1054      C1062   1.388       .  A
C1055      C1063   1.387       .  A
C1055      C1072   1.416       .  A
C1056      C1071   1.415       .  A
C1056      C1064   1.387       .  A
C1057      C1069   1.414       .  A
C1057      C1065   1.386       .  A
C1058      C1072   1.413       .  A
C1058      C1066   1.386       .  A
C1059      C1067   1.387       .  A
C1059      C1070   1.411       .  A
C1060      C1068   1.386       .  A
C1060      C1071   1.410       .  A
C1061      C1062   1.377       .  A
C1061      H1073   1.082       .  S
C1062      H1074   1.082       .  S
C1063      C1064   1.376       .  A
C1063      H1075   1.082       .  S
C1064      H1076   1.082       .  S
C1065      C1066   1.373       .  A
C1065      H1077   1.082       .  S
C1066      H1078   1.082       .  S
C1067      C1068   1.372       .  A
C1067      H1079   1.082       .  S
C1068      H1080   1.082       .  S
C1069      C1654   1.491       .  S
C1070      C1564   1.483       .  S
C1071      C1557   1.485       .  S
C1072      C1667   1.487       .  S
N1083      C1087   1.353       .  A
N1083      N1084   1.321       .  A
N1083     Cu1091   2.097       .  S
N1084      C1085   1.340       .  A
C1085      C1086   1.380       .  A
C1085      H1088   1.082       .  S
C1086      C1087   1.392       .  A
C1086      C1607   1.482       .  S
C1087      H1089   1.082       .  S
Cu1090     N1093   2.049       .  S
Cu1091     N1101   2.099       .  S
Cu1092     N1094   2.088       .  S
Cu1092     N1100   2.090       .  S
N1093      C1097   1.340       .  A
N1093      N1094   1.319       .  A
N1094      C1095   1.350       .  A
C1095      C1096   1.390       .  A
C1095      H1098   1.082       .  S
C1096      C1097   1.380       .  A
C1096      C1597   1.479       .  S
C1097      H1099   1.082       .  S
N1100      C1104   1.346       .  A
N1101      C1102   1.347       .  A
C1102      H1105   1.081       .  S
C1103      C1104   1.387       .  A
C1103      C1544   1.487       .  S
C1104      H1106   1.081       .  S
N1107      C1111   1.348       .  A
N1107      N1108   1.321       .  A
N1107     Cu1115   2.075       .  S
N1108      C1109   1.340       .  A
N1108     Cu1114   2.061   1_556  S
C1109      C1110   1.381       .  A
C1109      H1112   1.082       .  S
C1110      C1111   1.386       .  A
C1110      C1567   1.475       .  S
C1111      H1113   1.082       .  S
Cu1115     N1125   2.077       .  S
Cu1116     N1118   2.083       .  S
Cu1116     N1124   2.084       .  S
N1117      C1121   1.341       .  A
N1117      N1118   1.321       .  A
N1118      C1119   1.348       .  A
C1119      C1120   1.388       .  A
C1119      H1122   1.082       .  S
C1120      C1121   1.380       .  A
C1120      C1554   1.477       .  S
C1121      H1123   1.082       .  S
N1124      C1128   1.346       .  A
N1125      C1126   1.345       .  A
C1126      C1127   1.387   1_556  A
C1126      H1129   1.081       .  S
C1127      C1534   1.491       .  S
C1128      H1130   1.081       .  S
N1131      C1135   1.350       .  A
N1131      N1132   1.322       .  A
N1131     Cu1139   2.087       .  S
N1132      C1133   1.344       .  A
C1133      C1134   1.386       .  A
C1133      H1136   1.082       .  S
C1134      C1135   1.390       .  A
C1134      C1717   1.489       .  S
C1135      H1137   1.082       .  S
Cu1138     N1141   2.077   1_554  S
Cu1139     N1149   2.087       .  S
Cu1140     N1142   2.085       .  S
Cu1140     N1148   2.085       .  S
N1141      C1145   1.346       .  A
N1141      N1142   1.322       .  A
N1142      C1143   1.347       .  A
C1143      C1144   1.388       .  A
C1143      H1146   1.082       .  S
C1144      C1145   1.386       .  A
C1144      C1724   1.486       .  S
C1145      H1147   1.082       .  S
N1148      C1152   1.347       .  A
N1149      C1150   1.345       .  A
C1150      H1153   1.082       .  S
C1151      C1152   1.388       .  A
C1151      C1524   1.487       .  S
C1152      H1154   1.081       .  S
N1155      C1159   1.345       .  A
N1155      N1156   1.320       .  A
N1155     Cu1163   2.073       .  S
N1156      C1157   1.340       .  A
N1156     Cu1162   2.050   1_556  S
C1157      C1158   1.380       .  A
C1157      H1160   1.082       .  S
C1158      C1159   1.386       .  A
C1158      C1494   1.473       .  S
C1159      H1161   1.082       .  S
Cu1163     N1173   2.076       .  S
Cu1164     N1166   2.091       .  S
Cu1164     N1172   2.092       .  S
N1165      C1169   1.340       .  A
N1165      N1166   1.320       .  A
N1166      C1167   1.350       .  A
C1167      C1168   1.393       .  A
C1167      H1170   1.081       .  S
C1168      C1169   1.383       .  A
C1168      C1504   1.486       .  S
C1169      H1171   1.082       .  S
N1172      C1176   1.346       .  A
N1173      C1174   1.346       .  A
C1174      C1175   1.387       .  A
C1174      H1177   1.081       .  S
C1175      C1514   1.492       .  S
C1176      H1178   1.081       .  S
C1179      C1180   1.414       .  A
C1179      C1184   1.405       .  A
C1179      C1537   1.487   1_556  S
C1180      C1181   1.402       .  A
C1180      C1547   1.485       .  S
C1181      C1182   1.406   1_455  A
C1181      H1186   1.084       .  S
C1182      C1183   1.420       .  A
C1182      C1527   1.488       .  S
C1183      C1184   1.407   1_655  A
C1183      C1517   1.491       .  S
C1184      H1185   1.084       .  S
N1187      C1192   1.353       .  A
N1187      C1191   1.353       .  A
N1187      H1219   1.038       .  S
N1188      C1195   1.352       .  A
N1188      C1196   1.351       .  A
N1189      C1194   1.355       .  A
N1189      C1193   1.354       .  A
N1189      H1220   1.039       .  S
N1190      C1197   1.352       .  A
N1190      C1198   1.352       .  A
C1191      C1199   1.387       .  A
C1191      C1207   1.416       .  A
C1192      C1208   1.416       .  A
C1192      C1200   1.387       .  A
C1193      C1201   1.387       .  A
C1193      C1210   1.418       .  A
C1194      C1209   1.418       .  A
C1194      C1202   1.386       .  A
C1195      C1207   1.414       .  A
C1195      C1203   1.386       .  A
C1196      C1210   1.413       .  A
C1196      C1204   1.386       .  A
C1197      C1205   1.386       .  A
C1197      C1208   1.413       .  A
C1198      C1206   1.386       .  A
C1198      C1209   1.414       .  A
C1199      C1200   1.375       .  A
C1199      H1211   1.082       .  S
C1200      H1212   1.082       .  S
C1201      C1202   1.376       .  A
C1201      H1213   1.082       .  S
C1202      H1214   1.082       .  S
C1203      C1204   1.374       .  A
C1203      H1215   1.082       .  S
C1204      H1216   1.082       .  S
C1205      C1206   1.374       .  A
C1205      H1217   1.082       .  S
C1206      H1218   1.082       .  S
C1207      C1634   1.491       .  S
C1208      C1474   1.488       .  S
C1209      C1484   1.496       .  S
C1210      C1624   1.490       .  S
N1221      C1226   1.351       .  A
N1221      C1225   1.350       .  A
N1221      H1253   1.039       .  S
N1222      C1229   1.350       .  A
N1222      C1230   1.350       .  A
N1223      C1228   1.354       .  A
N1223      C1227   1.354       .  A
N1223      H1254   1.039       .  S
N1224      C1231   1.349       .  A
N1224      C1232   1.349       .  A
C1225      C1233   1.387       .  A
C1225      C1241   1.410       .  A
C1226      C1242   1.411       .  A
C1226      C1234   1.387       .  A
C1227      C1235   1.387       .  A
C1227      C1244   1.417       .  A
C1228      C1243   1.417       .  A
C1228      C1236   1.387       .  A
C1229      C1241   1.409       .  A
C1229      C1237   1.385       .  A
C1230      C1244   1.413       .  A
C1230      C1238   1.387       .  A
C1231      C1239   1.385       .  A
C1231      C1242   1.407       .  A
C1232      C1240   1.387       .  A
C1232      C1243   1.411       .  A
C1233      C1234   1.373       .  A
C1233      H1245   1.082       .  S
C1234      H1246   1.082       .  S
C1235      C1236   1.377       .  A
C1235      H1247   1.082       .  S
C1236      H1248   1.082       .  S
C1237      C1238   1.374       .  A
C1237      H1249   1.082       .  S
C1238      H1250   1.082       .  S
C1239      C1240   1.373       .  A
C1239      H1251   1.082       .  S
C1240      H1252   1.082       .  S
C1241      C1497   1.479       .  S
C1242      C1464   1.479       .  S
C1243      C1457   1.489       .  S
C1244      C1507   1.491       .  S
N1255      C1260   1.351       .  A
N1255      C1259   1.354       .  A
N1255      H1287   1.039       .  S
N1256      C1263   1.352       .  A
N1256      C1264   1.349       .  A
N1257      C1262   1.355       .  A
N1257      C1261   1.352       .  A
N1257      H1288   1.038       .  S
N1258      C1265   1.351       .  A
N1258      C1266   1.353       .  A
C1259      C1267   1.386       .  A
C1259      C1275   1.416       .  A
C1260      C1276   1.416       .  A
C1260      C1268   1.387       .  A
C1261      C1269   1.388       .  A
C1261      C1278   1.417       .  A
C1262      C1277   1.417       .  A
C1262      C1270   1.386       .  A
C1263      C1275   1.411       .  A
C1263      C1271   1.385       .  A
C1264      C1278   1.412       .  A
C1264      C1272   1.387       .  A
C1265      C1273   1.387       .  A
C1265      C1276   1.414       .  A
C1266      C1274   1.385       .  A
C1266      C1277   1.414       .  A
C1267      C1268   1.377       .  A
C1267      H1279   1.082       .  S
C1268      H1280   1.082       .  S
C1269      C1270   1.376       .  A
C1269      H1281   1.082       .  S
C1270      H1282   1.082       .  S
C1271      C1272   1.375       .  A
C1271      H1283   1.082       .  S
C1272      H1284   1.082       .  S
C1273      C1274   1.373       .  A
C1273      H1285   1.082       .  S
C1274      H1286   1.082       .  S
C1275      C1694   1.491       .  S
C1276      C1437   1.487       .  S
C1277      C1444   1.495       .  S
C1278      C1684   1.483       .  S
N1289      C1293   1.348       .  A
N1289      N1290   1.320       .  A
N1289     Cu1297   2.082       .  S
N1290      C1291   1.342       .  A
C1291      C1292   1.383       .  A
C1291      H1294   1.082       .  S
C1292      C1293   1.390       .  A
C1292      C1574   1.483       .  S
C1293      H1295   1.082       .  S
Cu1296     N1299   2.062       .  S
Cu1297     N1307   2.083       .  S
Cu1298     N1300   2.085       .  S
Cu1298     N1306   2.085       .  S
N1299      C1303   1.341       .  A
N1299      N1300   1.320       .  A
N1300      C1301   1.348       .  A
C1301      C1302   1.392       .  A
C1301      H1304   1.081       .  S
C1302      C1303   1.385       .  A
C1302      C1584   1.490       .  S
C1303      H1305   1.081       .  S
N1306      C1310   1.345       .  A
N1307      C1308   1.345       .  A
C1308      H1311   1.081       .  S
C1309      C1310   1.388   1_554  A
C1309      C1424   1.487       .  S
C1310      H1312   1.081       .  S
N1313      C1317   1.352       .  A
N1313      N1314   1.321       .  A
N1313     Cu1321   2.099       .  S
N1314      C1315   1.343       .  A
N1314     Cu1320   2.071       .  S
C1315      C1316   1.384       .  A
C1315      H1318   1.082       .  S
C1316      C1317   1.394       .  A
C1316      C1447   1.492       .  S
C1317      H1319   1.082       .  S
Cu1321     N1331   2.099       .  S
Cu1322     N1324   2.088       .  S
Cu1322     N1330   2.090       .  S
N1323      C1327   1.342       .  A
N1323      N1324   1.321       .  A
N1324      C1325   1.348       .  A
C1325      C1326   1.389       .  A
C1325      H1328   1.082       .  S
C1326      C1327   1.383       .  A
C1326      C1434   1.483       .  S
C1327      H1329   1.082       .  S
N1330      C1334   1.349       .  A
N1331      C1332   1.348       .  A
C1332      H1335   1.081       .  S
C1333      C1334   1.391       .  A
C1333      C1417   1.498       .  S
C1334      H1336   1.081       .  S
N1337      C1341   1.350       .  A
N1337      N1338   1.321       .  A
N1337     Cu1345   2.098       .  S
N1338      C1339   1.343       .  A
N1338     Cu1344   2.064       .  S
C1339      C1340   1.384       .  A
C1339      H1342   1.082       .  S
C1340      C1341   1.393       .  A
C1340      C1487   1.491       .  S
C1341      H1343   1.081       .  S
Cu1345     N1355   2.099       .  S
Cu1346     N1348   2.080       .  S
Cu1346     N1354   2.081       .  S
N1347      C1351   1.340       .  A
N1347      N1348   1.320       .  A
N1348      C1349   1.349       .  A
C1349      C1350   1.389       .  A
C1349      H1352   1.082       .  S
C1350      C1351   1.383       .  A
C1350      C1477   1.483       .  S
C1351      H1353   1.082       .  S
N1354      C1358   1.344       .  A
N1355      C1356   1.348       .  A
C1356      H1359   1.081       .  S
C1357      C1358   1.385   1_554  A
C1357      C1404   1.488       .  S
C1358      H1360   1.082       .  S
N1361      C1365   1.348       .  A
N1361      N1362   1.320       .  A
N1361     Cu1369   2.079       .  S
N1362      C1363   1.338       .  A
N1362     Cu1368   2.044       .  S
C1363      C1364   1.378       .  A
C1363      H1366   1.082       .  S
C1364      C1365   1.387       .  A
C1364      C1467   1.471       .  S
C1365      H1367   1.082       .  S
Cu1369     N1379   2.082       .  S
Cu1370     N1372   2.083       .  S
Cu1370     N1378   2.084       .  S
N1371      C1375   1.339       .  A
N1371      N1372   1.320       .  A
N1372      C1373   1.348       .  A
C1373      C1374   1.390       .  A
C1373      H1376   1.082       .  S
C1374      C1375   1.381       .  A
C1374      C1454   1.480       .  S
C1375      H1377   1.082       .  S
N1378      C1382   1.345       .  A
N1379      C1380   1.346       .  A
C1380      C1381   1.384       .  A
C1380      H1383   1.082       .  S
C1381      C1394   1.483       .  S
C1382      H1384   1.081       .  S
C1385      C1386   1.413       .  A
C1385      C1390   1.406       .  A
C1385      C1414   1.487       .  S
C1386      C1387   1.400       .  A
C1386      C1427   1.480       .  S
C1387      C1388   1.403       .  A
C1387      H1392   1.085   1_556  S
C1388      C1389   1.417       .  A
C1388      C1407   1.489   1_556  S
C1389      C1390   1.409       .  A
C1389      C1397   1.485       .  S
C1390      H1391   1.084       .  S
C1393      C1394   1.408       .  A
C1393      C1398   1.400       .  A
C1393      F1400   1.357       .  S
C1395      C1396   1.401       .  A
C1395      F1402   1.357       .  S
C1396      F1401   1.358       .  S
C1397      C1398   1.405       .  A
C1398      F1399   1.358       .  S
C1403      C1404   1.410       .  A
C1403      C1408   1.404       .  A
C1403      F1410   1.357       .  S
C1405      C1406   1.400       .  A
C1405      F1412   1.357       .  S
C1406      F1411   1.358       .  S
C1407      C1408   1.407       .  A
C1408      F1409   1.357       .  S
C1413      C1418   1.404       .  A
C1413      F1420   1.358       .  S
C1414      C1415   1.405       .  A
C1415      C1416   1.405       .  A
C1415      F1422   1.358       .  S
C1416      C1417   1.414       .  A
C1416      F1421   1.357       .  S
C1418      F1419   1.356       .  S
C1423      C1424   1.410   1_556  A
C1423      C1428   1.398       .  A
C1423      F1430   1.357       .  S
C1425      C1426   1.400       .  A
C1425      F1432   1.357       .  S
C1426      F1431   1.358       .  S
C1427      C1428   1.402       .  A
C1428      F1429   1.358       .  S
C1433      C1434   1.409       .  A
C1433      C1438   1.398       .  A
C1433      F1440   1.358       .  S
C1434      C1435   1.408       .  A
C1435      C1436   1.400       .  A
C1435      F1442   1.357       .  S
C1436      C1437   1.404       .  A
C1436      F1441   1.358       .  S
C1437      C1438   1.404       .  A
C1438      F1439   1.358       .  S
C1443      C1444   1.404       .  A
C1443      C1448   1.401       .  A
C1443      F1450   1.358       .  S
C1444      C1445   1.406       .  A
C1445      C1446   1.404       .  A
C1445      F1452   1.358       .  S
C1446      C1447   1.410       .  A
C1446      F1451   1.357       .  S
C1447      C1448   1.411       .  A
C1448      F1449   1.358       .  S
C1453      C1454   1.408       .  A
C1453      C1458   1.401       .  A
C1453      F1460   1.357       .  S
C1454      C1455   1.408       .  A
C1455      C1456   1.395       .  A
C1455      F1462   1.358       .  S
C1456      C1457   1.404       .  A
C1456      F1461   1.358       .  S
C1457      C1458   1.407       .  A
C1458      F1459   1.358       .  S
C1463      C1464   1.404       .  A
C1463      C1468   1.399       .  A
C1463      F1470   1.358       .  S
C1464      C1465   1.402       .  A
C1465      C1466   1.394       .  A
C1465      F1472   1.358       .  S
C1466      C1467   1.407       .  A
C1466      F1471   1.358       .  S
C1467      C1468   1.405       .  A
C1468      F1469   1.357       .  S
C1473      C1474   1.402       .  A
C1473      C1478   1.395       .  A
C1473      F1480   1.358       .  S
C1474      C1475   1.406       .  A
C1475      C1476   1.404       .  A
C1475      F1482   1.358       .  S
C1476      C1477   1.409       .  A
C1476      F1481   1.357       .  S
C1477      C1478   1.408       .  A
C1478      F1479   1.357       .  S
C1483      C1484   1.406       .  A
C1483      C1488   1.402       .  A
C1483      F1490   1.358       .  S
C1484      C1485   1.406       .  A
C1485      C1486   1.402       .  A
C1485      F1492   1.358       .  S
C1486      C1487   1.409       .  A
C1486      F1491   1.357       .  S
C1487      C1488   1.411       .  A
C1488      F1489   1.358       .  S
C1493      C1494   1.406       .  A
C1493      C1498   1.394       .  A
C1493      F1500   1.358       .  S
C1494      C1495   1.407       .  A
C1495      C1496   1.399       .  A
C1495      F1502   1.358       .  S
C1496      C1497   1.403       .  A
C1496      F1501   1.358       .  S
C1497      C1498   1.403       .  A
C1498      F1499   1.358       .  S
C1503      C1504   1.410       .  A
C1503      C1508   1.397       .  A
C1503      F1510   1.358       .  S
C1504      C1505   1.409       .  A
C1505      C1506   1.402       .  A
C1505      F1512   1.357       .  S
C1506      C1507   1.407       .  A
C1506      F1511   1.358       .  S
C1507      C1508   1.404       .  A
C1508      F1509   1.358       .  S
C1513      C1514   1.412       .  A
C1513      C1518   1.402       .  A
C1513      F1520   1.357       .  S
C1515      C1516   1.402       .  A
C1515      F1522   1.357       .  S
C1516      F1521   1.358       .  S
C1517      C1518   1.406       .  A
C1518      F1519   1.358       .  S
C1523      C1524   1.409   1_554  A
C1523      C1528   1.398       .  A
C1523      F1530   1.357       .  S
C1525      C1526   1.402       .  A
C1525      F1532   1.358       .  S
C1526      F1531   1.358       .  S
C1527      C1528   1.405   1_556  A
C1528      F1529   1.357       .  S
C1533      C1538   1.400       .  A
C1533      F1540   1.357       .  S
C1534      C1535   1.411       .  A
C1535      C1536   1.401       .  A
C1535      F1542   1.357       .  S
C1536      C1537   1.405       .  A
C1536      F1541   1.358       .  S
C1538      F1539   1.358       .  S
C1543      C1548   1.403       .  A
C1543      F1550   1.356       .  S
C1544      C1545   1.409       .  A
C1545      C1546   1.399       .  A
C1545      F1552   1.357       .  S
C1546      C1547   1.404       .  A
C1546      F1551   1.358       .  S
C1548      F1549   1.358       .  S
C1553      C1554   1.408       .  A
C1553      C1558   1.398       .  A
C1553      F1560   1.358       .  S
C1554      C1555   1.406       .  A
C1555      C1556   1.400       .  A
C1555      F1562   1.357       .  S
C1556      C1557   1.404       .  A
C1556      F1561   1.357       .  S
C1557      C1558   1.403       .  A
C1558      F1559   1.358       .  S
C1563      C1564   1.402       .  A
C1563      C1568   1.395       .  A
C1563      F1570   1.358       .  S
C1564      C1565   1.405       .  A
C1565      C1566   1.401       .  A
C1565      F1572   1.358       .  S
C1566      C1567   1.407       .  A
C1566      F1571   1.358       .  S
C1567      C1568   1.406       .  A
C1568      F1569   1.358       .  S
C1573      C1574   1.408       .  A
C1573      C1578   1.401       .  A
C1573      F1580   1.357       .  S
C1574      C1575   1.409       .  A
C1575      C1576   1.400       .  A
C1575      F1582   1.358       .  S
C1576      C1577   1.404       .  A
C1576      F1581   1.358       .  S
C1577      C1578   1.404       .  A
C1578      F1579   1.357       .  S
C1583      C1584   1.412       .  A
C1583      C1588   1.399       .  A
C1583      F1590   1.357       .  S
C1584      C1585   1.410       .  A
C1585      C1586   1.402       .  A
C1585      F1592   1.357       .  S
C1586      C1587   1.404       .  A
C1586      F1591   1.357       .  S
C1587      C1588   1.404       .  A
C1588      F1589   1.358       .  S
C1593      C1594   1.405       .  A
C1593      C1598   1.397       .  A
C1593      F1600   1.358       .  S
C1594      C1595   1.407       .  A
C1595      C1596   1.401       .  A
C1595      F1602   1.358       .  S
C1596      C1597   1.406       .  A
C1596      F1601   1.357       .  S
C1597      C1598   1.407       .  A
C1598      F1599   1.358       .  S
C1603      C1604   1.402       .  A
C1603      C1608   1.395       .  A
C1603      F1610   1.358       .  S
C1604      C1605   1.408       .  A
C1605      C1606   1.405       .  A
C1605      F1612   1.358       .  S
C1606      C1607   1.408       .  A
C1606      F1611   1.358       .  S
C1607      C1608   1.407       .  A
C1608      F1609   1.358       .  S
C1613      C1618   1.401       .  A
C1613      F1620   1.358       .  S
C1614      C1615   1.403   1_554  A
C1615      C1616   1.401       .  A
C1615      F1622   1.358       .  S
C1616      C1617   1.413       .  A
C1616      F1621   1.356       .  S
C1618      F1619   1.357       .  S
C1623      C1624   1.407       .  A
C1623      C1628   1.403       .  A
C1623      F1630   1.358       .  S
C1624      C1625   1.404       .  A
C1625      C1626   1.397       .  A
C1625      F1632   1.358       .  S
C1626      C1627   1.407       .  A
C1626      F1631   1.358       .  S
C1627      C1628   1.407       .  A
C1628      F1629   1.357       .  S
C1633      C1634   1.405       .  A
C1633      C1638   1.396       .  A
C1633      F1640   1.358       .  S
C1634      C1635   1.406       .  A
C1635      C1636   1.402       .  A
C1635      F1642   1.357       .  S
C1636      C1637   1.407       .  A
C1636      F1641   1.357       .  S
C1637      C1638   1.408       .  A
C1638      F1639   1.358       .  S
C1643      C1644   1.406       .  A
C1643      C1648   1.402       .  A
C1643      F1650   1.357       .  S
C1645      C1646   1.403       .  A
C1645      F1652   1.358       .  S
C1646      F1651   1.357       .  S
C1647      C1648   1.410       .  A
C1648      F1649   1.357       .  S
C1653      C1654   1.406       .  A
C1653      C1658   1.403       .  A
C1653      F1660   1.357       .  S
C1654      C1655   1.404       .  A
C1655      C1656   1.401       .  A
C1655      F1662   1.358       .  S
C1656      C1657   1.408       .  A
C1656      F1661   1.358       .  S
C1657      C1658   1.406       .  A
C1658      F1659   1.357       .  S
C1663      C1664   1.408       .  A
C1663      C1668   1.397       .  A
C1663      F1670   1.358       .  S
C1664      C1665   1.408       .  A
C1665      C1666   1.402       .  A
C1665      F1672   1.357       .  S
C1666      C1667   1.405       .  A
C1666      F1671   1.358       .  S
C1667      C1668   1.403       .  A
C1668      F1669   1.358       .  S
C1673      C1674   1.412   1_556  A
C1673      C1678   1.405       .  A
C1673      F1680   1.357       .  S
C1675      C1676   1.402       .  A
C1675      F1682   1.357       .  S
C1676      F1681   1.358       .  S
C1677      C1678   1.405   1_554  A
C1678      F1679   1.358       .  S
C1683      C1684   1.405       .  A
C1683      C1688   1.401       .  A
C1683      F1690   1.358       .  S
C1684      C1685   1.402       .  A
C1685      C1686   1.396       .  A
C1685      F1692   1.358       .  S
C1686      C1687   1.406       .  A
C1686      F1691   1.358       .  S
C1687      C1688   1.407       .  A
C1688      F1689   1.358       .  S
C1693      C1694   1.406       .  A
C1693      C1698   1.405       .  A
C1693      F1700   1.358       .  S
C1694      C1695   1.402       .  A
C1695      C1696   1.396       .  A
C1695      F1702   1.358       .  S
C1696      C1697   1.409       .  A
C1696      F1701   1.357       .  S
C1697      C1698   1.410       .  A
C1698      F1699   1.357       .  S
C1703      C1708   1.399       .  A
C1703      F1710   1.357       .  S
C1704      C1705   1.408       .  A
C1705      C1706   1.398       .  A
C1705      F1712   1.357       .  S
C1706      C1707   1.406       .  A
C1706      F1711   1.357       .  S
C1708      F1709   1.358       .  S
C1713      C1714   1.408       .  A
C1713      C1718   1.405       .  A
C1713      F1720   1.358       .  S
C1714      C1715   1.404       .  A
C1715      C1716   1.400       .  A
C1715      F1722   1.357       .  S
C1716      C1717   1.408       .  A
C1716      F1721   1.357       .  S
C1717      C1718   1.410       .  A
C1718      F1719   1.357       .  S
C1723      C1724   1.409       .  A
C1723      C1728   1.401       .  A
C1723      F1730   1.357       .  S
C1724      C1725   1.409       .  A
C1725      C1726   1.401       .  A
C1725      F1732   1.358       .  S
C1726      C1727   1.404       .  A
C1726      F1731   1.358       .  S
C1727      C1728   1.404       .  A
C1728      F1729   1.358       .  S
C1733      C1734   1.405       .  A
C1733      C1738   1.401       .  A
C1733      F1740   1.358       .  S
C1734      C1735   1.406       .  A
C1735      C1736   1.403       .  A
C1735      F1742   1.358       .  S
C1736      C1737   1.407       .  A
C1736      F1741   1.358       .  S
C1737      C1738   1.406       .  A
C1738      F1739   1.357       .  S
C1743      C1744   1.407       .  A
C1743      C1748   1.403       .  A
C1743      F1750   1.358       .  S
C1744      C1745   1.406       .  A
C1745      C1746   1.400       .  A
C1745      F1752   1.358       .  S
C1746      C1747   1.405       .  A
C1746      F1751   1.358       .  S
C1747      C1748   1.407       .  A
C1748      F1749   1.358       .  S
