geometry optimzed in LAMMPS
_audit_creation_date              2020-11-30 
_audit_creation_method            'lammps2cif' 
_symmetry_space_group_name_H-M    'P1' 
_symmetry_Int_Tables_number       1 
_symmetry_cell_setting            triclinic 
loop_ 
_symmetry_equiv_pos_as_xyz 
  x,y,z 
_cell_length_a                    34.792596920758534 
_cell_length_b                    34.80868404698956 
_cell_length_c                    34.81122534336395 
_cell_angle_alpha                 89.99944605927719 
_cell_angle_beta                  89.97360481195543 
_cell_angle_gamma                 90.01241343961016 
loop_ 
_atom_site_label 
_atom_site_type_symbol 
_atom_site_fract_x 
_atom_site_fract_y 
_atom_site_fract_z 
_atom_site_charge 
O1          O  0.70341948  0.71039550  0.20846923    -0.88130
C2          C  0.72945529  0.70303756  0.32400435     0.87900
Mg3        Mg  0.74763430  0.70495660  0.16437638     1.58150
O4          O  0.70835895  0.79650931  0.28997173    -0.87860
O5          O  0.65793260  0.74828891  0.22930307    -0.75190
C6          C  0.88472869  0.82760577  0.21363255     0.92950
O7          O  0.76980718  0.65872205  0.24727196    -0.75000
O8          O  0.88014744  0.79573075  0.19630289    -0.82510
Mg9        Mg  0.70387461  0.66533755  0.25152387     1.57960
C10         C  0.78596156  0.88502072  0.32734382     0.92870
O11         O  0.63869704  0.66068540  0.26137074    -0.80770
H12         H  0.67295537  0.83506075  0.26628619    -0.06120
C13         C  0.82392018  0.77038516  0.29718584     0.87810
O14         O  0.75228372  0.77085158  0.15801484    -0.75280
O15         O  0.70937828  0.70945866  0.29551819    -0.88050
O16         O  0.76116499  0.86104178  0.33960227    -0.80860
C17         C  0.67196563  0.78633148  0.38454251     0.92990
C18         C  0.61490739  0.67276018  0.28643245     0.92840
Mg19       Mg  0.79516413  0.83549560  0.24772400     1.57950
O20         O  0.86044787  0.84008056  0.23804105    -0.80780
O21         O  0.72915655  0.84181546  0.25187474    -0.75020
O22         O  0.66006513  0.76143026  0.36052685    -0.80860
O23         O  0.69541805  0.62043682  0.20387506    -0.82570
O24         O  0.83975206  0.73835749  0.13924687    -0.80890
C25         C  0.70210677  0.82482994  0.26957586     0.87280
O26         O  0.79002355  0.79131566  0.20371724    -0.88030
O27         O  0.79549307  0.79056965  0.29077690    -0.88140
O28         O  0.84104414  0.75258491  0.27031211    -0.75190
Mg29       Mg  0.66435526  0.75234208  0.29529321     1.57970
O30         O  0.70357198  0.80416649  0.37990479    -0.82570
H31         H  0.66480783  0.73405226  0.17309848    -0.06290
O32         O  0.79062321  0.70423582  0.20948959    -0.87840
H33         H  0.82599848  0.66543751  0.23281577    -0.06120
H34         H  0.76716978  0.82686401  0.16490104    -0.06290
C35         C  0.79686307  0.67576144  0.22965853     0.87250
C36         C  0.67503182  0.73072971  0.20223675     0.87840
C37         C  0.77002229  0.79772835  0.17517839     0.87890
H38         H  0.83413773  0.76743063  0.32631889    -0.06270
O39         O  0.74707266  0.72994944  0.34124723    -0.75300
Mg40       Mg  0.83492492  0.74817872  0.20438210     1.58000
H41         H  0.73244079  0.67388579  0.33419245    -0.06290
C42         C  0.71265999  0.61585659  0.17195352     0.92870
O43         O  0.79555980  0.69646263  0.11950925    -0.82530
C44         C  0.82749748  0.71376921  0.11506535     0.92930
O45         O  0.61957311  0.70458534  0.30378272    -0.82510
Mg46       Mg  0.75138770  0.79590271  0.33493971     1.58180
O47         O  0.73735120  0.63989380  0.15958375    -0.80850
O48         O  0.80331939  0.88042621  0.29547515    -0.82540
O49         O  0.78448342  0.31294389  0.76792987    -0.88130
C50         C  0.77509930  0.26021397  0.66240545     0.87900
Mg51       Mg  0.80852055  0.28379509  0.81751173     1.58150
O52         O  0.68744479  0.26879628  0.71376759    -0.87860
O53         O  0.73167148  0.34172314  0.75050107    -0.75190
C54         C  0.71842876  0.11583874  0.83050855     0.92950
O55         O  0.84189547  0.24982024  0.73100584    -0.75000
O56         O  0.75226898  0.12981026  0.83348683    -0.82510
Mg57       Mg  0.81867208  0.30958698  0.71535542     1.57960
C58         C  0.61645947  0.16840700  0.71688207     0.92870
O59         O  0.80670139  0.36931824  0.68908498    -0.80770
H60         H  0.64680399  0.30072658  0.73863435    -0.06120
C61         C  0.74027159  0.16300536  0.72391996     0.87810
O62         O  0.74907551  0.26706231  0.84073091    -0.75280
O63         O  0.76894975  0.28573268  0.68620882    -0.88050
O64         O  0.63200114  0.18953768  0.69131033    -0.80860
C65         C  0.66891336  0.28196600  0.61501094     0.92990
C66         C  0.78119689  0.38473367  0.66784474     0.92840
Mg67       Mg  0.68132142  0.19122952  0.78265418     1.57950
O68         O  0.69281732  0.13138435  0.80942927    -0.80780
O69         O  0.65870664  0.25100286  0.76654351    -0.75020
O70         O  0.68984335  0.30755944  0.63072770    -0.80860
O71         O  0.86901255  0.33654670  0.74750606    -0.82570
O72         O  0.81228324  0.19226931  0.86624886    -0.80890
C73         C  0.66341819  0.27452862  0.73915820     0.87280
O74         O  0.73151142  0.21451429  0.81158376    -0.88030
O75         O  0.71512682  0.18720733  0.72991280    -0.88140
O76         O  0.76771946  0.15803032  0.74729642    -0.75190
Mg77       Mg  0.71600384  0.31922025  0.69052963     1.57970
O78         O  0.66572565  0.24817358  0.62888349    -0.82570
H79         H  0.75936545  0.35299043  0.80053138    -0.06290
O80         O  0.81277272  0.23127421  0.78325867    -0.87840
H81         H  0.85362748  0.19963788  0.75823222    -0.06120
H82         H  0.69949901  0.23876442  0.85262333    -0.06290
C83         C  0.83695991  0.22583875  0.75795669     0.87250
C84         C  0.75899097  0.33676506  0.77404335     0.87840
C85         C  0.72566893  0.23960097  0.83587964     0.87890
H86         H  0.73948968  0.14645757  0.69765062    -0.06270
O87         O  0.75173927  0.23267839  0.65759223    -0.75300
Mg88       Mg  0.78430210  0.18078784  0.80689849     1.58000
H89         H  0.80154734  0.26071859  0.64609248    -0.06290
C90         C  0.88301325  0.33316296  0.78120619     0.92870
O91         O  0.83603747  0.25175011  0.86713738    -0.82530
C92         C  0.83374226  0.21798596  0.88114573     0.92930
O93         O  0.74754516  0.37052824  0.66444503    -0.82510
Mg94       Mg  0.69183122  0.21623274  0.67982527     1.58180
O95         O  0.86780509  0.31134642  0.80633437    -0.80850
O96         O  0.63047926  0.16516007  0.75060796    -0.82540
O97         O  0.73127851  0.78549005  0.68864219    -0.88130
C98         C  0.83702368  0.77532898  0.74075233     0.87900
Mg99       Mg  0.68098232  0.80855694  0.71739389     1.58150
O100        O  0.78544780  0.68777799  0.73164660    -0.87860
O101        O  0.74856096  0.73299192  0.65922611    -0.75190
C102        C  0.66915224  0.71785486  0.88477937     0.92950
O103        O  0.76770423  0.84176731  0.75234057    -0.75000
O104        O  0.66570690  0.75153457  0.87071532    -0.82510
Mg105      Mg  0.78374819  0.81950339  0.69235712     1.57960
C106        C  0.78290287  0.61614962  0.83176498     0.92870
O107        O  0.81021594  0.80809988  0.63230614    -0.80770
H108        H  0.76068107  0.64723584  0.69946785    -0.06120
C109        C  0.77542515  0.74058199  0.83728143     0.87810
O110        O  0.65876924  0.74858830  0.73341777    -0.75280
O111        O  0.81297279  0.76945388  0.71542459    -0.88050
O112        O  0.80841885  0.63173435  0.81057656    -0.80860
C113        C  0.88419304  0.66922687  0.71784606     0.92990
C114        C  0.83124520  0.78250127  0.61665035     0.92840
Mg115      Mg  0.71696535  0.68108323  0.80933076     1.57950
O116        O  0.69049140  0.69241857  0.86929832    -0.80780
O117        O  0.73289180  0.65864359  0.74941339    -0.75020
O118        O  0.86838504  0.69031419  0.69245286    -0.80860
O119        O  0.75127824  0.87012535  0.66640518    -0.82570
O120        O  0.63144305  0.81016008  0.80851372    -0.80890
C121        C  0.76016750  0.66366410  0.72580630     0.87280
O122        O  0.68776650  0.73112227  0.78609357    -0.88030
O123        O  0.76959756  0.71506529  0.81340514    -0.88140
O124        O  0.75169907  0.76778477  0.84221894    -0.75190
Mg125      Mg  0.80850118  0.71681563  0.68146204     1.57970
O126        O  0.87044053  0.66589282  0.75168558    -0.82570
H127        H  0.69878169  0.76131546  0.64822098    -0.06290
O128        O  0.71482942  0.81304357  0.77003103    -0.87840
H129        H  0.74003078  0.85325221  0.80234588    -0.06120
H130        H  0.64746448  0.69866846  0.76127785    -0.06290
C131        C  0.74035721  0.83691373  0.77592724     0.87250
C132        C  0.72519524  0.76042195  0.66444094     0.87840
C133        C  0.66377691  0.72509028  0.76075827     0.87890
H134        H  0.80186161  0.74033766  0.85359103    -0.06270
O135        O  0.84199313  0.75174568  0.76803946    -0.75300
Mg136      Mg  0.69162485  0.78378734  0.81999038     1.58000
H137        H  0.85342724  0.80170254  0.74029028    -0.06290
C138        C  0.71747110  0.88400710  0.66961729     0.92870
O139        O  0.62984939  0.83427479  0.74914631    -0.82530
C140        C  0.61573243  0.83103691  0.78282714     0.92930
O141        O  0.83439236  0.74875303  0.63059366    -0.82510
Mg142      Mg  0.81966425  0.69180719  0.78410688     1.58180
O143        O  0.69199021  0.86844178  0.69082533    -0.80850
O144        O  0.74921449  0.63026491  0.83520400    -0.82540
C145        C  0.54118783  0.39735128  0.16962538     0.03350
C146        C  0.57524301  0.37541498  0.17502777    -0.12800
C147        C  0.58010406  0.35309901  0.20890845     0.00850
C148        C  0.55099452  0.35299435  0.23642292    -0.11330
C149        C  0.51750252  0.37437054  0.23102356     0.03340
C150        C  0.51288152  0.39655465  0.19797747    -0.10750
H151        H  0.59751744  0.37568923  0.15328998     0.08930
H152        H  0.55428117  0.33575911  0.26216981     0.06460
H153        H  0.48712273  0.41371998  0.19443484     0.06310
C154        C  0.35127199  0.20598810  0.58044155     0.03350
C155        C  0.35201011  0.23425999  0.55217615    -0.12800
C156        C  0.37535565  0.23006803  0.51979358     0.00850
C157        C  0.39844328  0.19754719  0.51535110    -0.11330
C158        C  0.39893863  0.16908806  0.54344897     0.03340
C159        C  0.37505799  0.17312391  0.57627921    -0.10750
H160        H  0.33455975  0.25986794  0.55552714     0.08930
H161        H  0.41582868  0.19421200  0.48969316     0.06460
H162        H  0.37498428  0.15105767  0.59821729     0.06310
C163        C  0.40167396  0.37428514  0.34681939     0.03350
C164        C  0.40155468  0.34585403  0.37500952    -0.12800
C165        C  0.37391270  0.34654147  0.40415723     0.00850
C166        C  0.34654346  0.37593207  0.40484374    -0.11330
C167        C  0.34635361  0.40381415  0.37606760     0.03340
C168        C  0.37397175  0.40315205  0.34708982    -0.10750
H169        H  0.42274923  0.32305304  0.37389428     0.08930
H170        H  0.32566343  0.37752523  0.42790088     0.06460
H171        H  0.37396577  0.42504003  0.32491341     0.06310
C172        C  0.17013742  0.54390965  0.39996382     0.03350
C173        C  0.19886999  0.51609430  0.39968478    -0.12800
C174        C  0.23123863  0.52033934  0.37621624     0.00850
C175        C  0.23489758  0.55245298  0.35237488    -0.11330
C176        C  0.20661459  0.58071723  0.35188309     0.03340
C177        C  0.17390170  0.57658782  0.37588594    -0.10750
H178        H  0.19607641  0.49105599  0.41802163     0.08930
H179        H  0.25978947  0.55539842  0.33384946     0.06460
H180        H  0.15173448  0.59842981  0.37581374     0.06310
O181        O  0.95926527  0.45453711  0.54153487    -0.88130
C182        C  0.95306057  0.48066368  0.42579805     0.87900
Mg183      Mg  0.95400385  0.49853501  0.58566942     1.58150
O184        O  0.04618313  0.45902475  0.46066983    -0.87860
O185        O  0.99706090  0.40887572  0.52099777    -0.75190
C186        C  0.07787840  0.63458305  0.53701496     0.92950
O187        O  0.90845040  0.52139691  0.50250479    -0.75000
O188        O  0.04606058  0.63003769  0.55446169    -0.82510
Mg189      Mg  0.91454757  0.45546895  0.49821171     1.57960
C190        C  0.13544861  0.53638162  0.42335052     0.92870
O191        O  0.90966597  0.39045285  0.48850704    -0.80770
H192        H  0.08455062  0.42331284  0.48404798    -0.06120
C193        C  0.02063320  0.57443084  0.45322961     0.87810
O194        O  0.02001454  0.50242586  0.59218808    -0.75280
O195        O  0.95905490  0.46056628  0.45437939    -0.88050
O196        O  0.11163917  0.51134306  0.41125503    -0.80860
C197        C  0.03724938  0.42216356  0.36632650     0.92990
C198        C  0.92179760  0.36638748  0.46376569     0.92840
Mg199      Mg  0.08556286  0.54536278  0.50278645     1.57950
O200        O  0.09013899  0.61047896  0.51237051    -0.80780
O201        O  0.09180905  0.47938463  0.49856520    -0.75020
O202        O  0.01191701  0.41043811  0.39001945    -0.80860
O203        O  0.86921842  0.44732203  0.54567597    -0.82570
O204        O  0.98848232  0.58987994  0.61129907    -0.80890
C205        C  0.07453451  0.45251105  0.48091699     0.87280
O206        O  0.04116441  0.54010701  0.54670394    -0.88030
O207        O  0.04079368  0.54597760  0.45959883    -0.88140
O208        O  0.00285619  0.59154209  0.48013932    -0.75190
Mg209      Mg  0.00177408  0.41525063  0.45509797     1.57970
O210        O  0.05494922  0.45382035  0.37099365    -0.82570
H211        H  0.98230456  0.41571607  0.57706367    -0.06290
O212        O  0.95393106  0.54154858  0.54067762    -0.87840
H213        H  0.91563052  0.57741478  0.51727367    -0.06120
H214        H  0.07632749  0.51640957  0.58546564    -0.06290
C215        C  0.92563865  0.54817251  0.52036516     0.87250
C216        C  0.97933188  0.42601003  0.54791191     0.87840
C217        C  0.04722471  0.51982274  0.57514294     0.87890
H218        H  0.01769150  0.58469667  0.42410440    -0.06270
O219        O  0.98032974  0.49792361  0.40871060    -0.75300
Mg220      Mg  0.99827930  0.58529122  0.54609722     1.58000
H221        H  0.92398543  0.48400218  0.41536817    -0.06290
C222        C  0.86454648  0.46458671  0.57757312     0.92870
O223        O  0.94579313  0.54627109  0.63063001    -0.82530
C224        C  0.96356661  0.57788856  0.63530753     0.92930
O225        O  0.95370542  0.37078556  0.44643027    -0.82510
Mg226      Mg  0.04632183  0.50184535  0.41556123     1.58180
O227        O  0.88871215  0.48908192  0.59006633    -0.80850
O228        O  0.13068621  0.55379446  0.45514823    -0.82540
O229        O  0.54139425  0.95932935  0.45421785    -0.88130
C230        C  0.42559716  0.95237446  0.47969503     0.87900
Mg231      Mg  0.58558002  0.95408912  0.49824508     1.58150
O232        O  0.46001140  0.04569911  0.45850372    -0.87860
O233        O  0.52082933  0.99693139  0.40842083    -0.75190
C234        C  0.53655325  0.07755771  0.63435346     0.92950
O235        O  0.50230765  0.90837224  0.52075921    -0.75000
O236        O  0.55412079  0.04582954  0.62975108    -0.82510
Mg237      Mg  0.49827612  0.91446099  0.45481201     1.57960
C238        C  0.42232559  0.13440045  0.53608880     0.92870
O239        O  0.48903717  0.90965176  0.38964128    -0.80770
H240        H  0.48341813  0.08434680  0.42307566    -0.06120
C241        C  0.45278071  0.01981579  0.57409175     0.87810
O242        O  0.59193674  0.02006587  0.50225168    -0.75280
O243        O  0.45422105  0.95868318  0.45974801    -0.88050
O244        O  0.41020611  0.11045396  0.51120768    -0.80860
C245        C  0.36550009  0.03608362  0.42182706     0.92990
C246        C  0.46412512  0.92146810  0.36558916     0.92840
Mg247      Mg  0.50208809  0.08496564  0.54516928     1.57950
O248        O  0.51165237  0.08960742  0.61039012    -0.80780
O249        O  0.49787906  0.09124614  0.47919410    -0.75020
O250        O  0.38963549  0.01141104  0.40961180    -0.80860
O251        O  0.54595149  0.86943990  0.44686252    -0.82570
O252        O  0.61104766  0.98799938  0.59002253    -0.80890
C253        C  0.48025676  0.07412257  0.45220389     0.87280
O254        O  0.54632383  0.04087856  0.53996428    -0.88030
O255        O  0.45909824  0.03993514  0.54559518    -0.88140
O256        O  0.47978733  0.00230227  0.59130440    -0.75190
Mg257      Mg  0.45482592  0.00139891  0.41453430     1.57970
O258        O  0.36999738  0.05346466  0.45368870    -0.82570
H259        H  0.57693126  0.98237418  0.41544457    -0.06290
O260        O  0.54052671  0.95372003  0.54122734    -0.87840
H261        H  0.51689313  0.91536361  0.57682874    -0.06120
H262        H  0.58498108  0.07628183  0.51638282    -0.06290
C263        C  0.52011108  0.92544606  0.54765091     0.87250
C264        C  0.54777294  0.97936309  0.42567419     0.87840
C265        C  0.57476943  0.04713194  0.51971550     0.87890
H266        H  0.42363148  0.01669190  0.58432388    -0.06270
O267        O  0.40840607  0.97934280  0.49726624    -0.75300
Mg268      Mg  0.54580865  0.99794938  0.58510538     1.58000
H269        H  0.41524838  0.92327300  0.48261780    -0.06290
C270        C  0.57787813  0.86484695  0.46409386     0.92870
O271        O  0.63055070  0.94587499  0.54598586    -0.82530
C272        C  0.63512298  0.96325538  0.57782783     0.92930
O273        O  0.44650483  0.95322195  0.36996320    -0.82510
Mg274      Mg  0.41491364  0.04524864  0.50150131     1.58180
O275        O  0.59025651  0.88889349  0.48873343    -0.80850
O276        O  0.45417520  0.12980340  0.55347273    -0.82540
C277        C  0.59481746  0.62465888  0.65019714     0.03350
C278        C  0.59367916  0.65191244  0.62083646    -0.12800
C279        C  0.62301386  0.65282647  0.59358954     0.00850
C280        C  0.65306275  0.62644723  0.59511702    -0.11330
C281        C  0.65342075  0.59858950  0.62385471     0.03340
C282        C  0.62443817  0.59769502  0.65151529    -0.10750
H283        H  0.57073204  0.67296781  0.61982316     0.08930
H284        H  0.67561105  0.62714159  0.57360428     0.06460
H285        H  0.62490860  0.57606173  0.67393585     0.06310
C286        C  0.41965989  0.64932211  0.79217117     0.03350
C287        C  0.44720997  0.64817955  0.76318516    -0.12800
C288        C  0.47992303  0.62527080  0.76700428     0.00850
C289        C  0.48545582  0.60325119  0.80009266    -0.11330
C290        C  0.45832328  0.60332986  0.82957322     0.03340
C291        C  0.42492274  0.62648931  0.82559448    -0.10750
H292        H  0.44339567  0.66570472  0.73771056     0.08930
H293        H  0.51103202  0.58564807  0.80279279     0.06460
H294        H  0.40363692  0.62712124  0.84829573     0.06310
C295        C  0.60113473  0.83014654  0.45661148     0.03350
C296        C  0.62524259  0.82641052  0.42391432    -0.12800
C297        C  0.64848219  0.79323131  0.41922974     0.00850
C298        C  0.64694283  0.76431162  0.44682677    -0.11330
C299        C  0.62358542  0.76848977  0.47908269     0.03340
C300        C  0.60102659  0.80117884  0.48418955    -0.10750
H301        H  0.62578733  0.84887982  0.40239466     0.08930
H302        H  0.66407941  0.73850984  0.44333554     0.06460
H303        H  0.58332806  0.80399314  0.50970083     0.06310
C304        C  0.82945785  0.45766255  0.60049944     0.03350
C305        C  0.82410919  0.42429988  0.62334924    -0.12800
C306        C  0.79044627  0.42015764  0.64605685     0.00850
C307        C  0.76314193  0.44939453  0.64574919    -0.11330
C308        C  0.76845616  0.48220646  0.62327937     0.03340
C309        C  0.80162438  0.48639513  0.60103838    -0.10750
H310        H  0.84555537  0.40175268  0.62307544     0.08930
H311        H  0.73757858  0.44666401  0.66337585     0.06460
H312        H  0.80557312  0.51192764  0.58361633     0.06310
O313        O  0.46497987  0.48093074  0.93671208    -0.88130
C314        C  0.47471797  0.58651770  0.98940800     0.87900
Mg315      Mg  0.44191739  0.43086129  0.96606293     1.58150
O316        O  0.56239931  0.53518165  0.98016495    -0.87860
O317        O  0.51748935  0.49861162  0.90745396    -0.75190
C318        C  0.53240356  0.41895426  0.13389869     0.92950
O319        O  0.40849394  0.51734296  0.00064539    -0.75000
O320        O  0.49869575  0.41576060  0.11978416    -0.82510
Mg321      Mg  0.43078395  0.53344440  0.94065170     1.57960
C322        C  0.63380585  0.53277891  0.08061148     0.92870
O323        O  0.44207983  0.56028816  0.88067301    -0.80770
H324        H  0.60288344  0.51019452  0.94803827    -0.06120
C325        C  0.50991379  0.52509666  0.08621334     0.87810
O326        O  0.50190016  0.40868512  0.98210175    -0.75280
O327        O  0.48072358  0.56274393  0.96383619    -0.88050
O328        O  0.61825303  0.55811679  0.05923524    -0.80860
C329        C  0.58077952  0.63399290  0.96695073     0.92990
C330        C  0.46759089  0.58146300  0.86501848     0.92840
Mg331      Mg  0.56930748  0.46660877  0.05818798     1.57950
O332        O  0.55804165  0.44000819  0.11830521    -0.80780
O333        O  0.59155742  0.48271024  0.99816924    -0.75020
O334        O  0.55979845  0.61844551  0.94129855    -0.80860
O335        O  0.38007455  0.50098133  0.91472723    -0.82570
O336        O  0.44025731  0.38179539  0.05762630    -0.80890
C337        C  0.58647916  0.50983898  0.97440893     0.87280
O338        O  0.51937817  0.43734601  0.03500606    -0.88030
O339        O  0.53517116  0.51910573  0.06210837    -0.88140
O340        O  0.48257511  0.50158632  0.09128027    -0.75190
Mg341      Mg  0.53343398  0.55852902  0.92990689     1.57970
O342        O  0.58398999  0.61988353  0.00062591    -0.82570
H343        H  0.48971437  0.44860905  0.89621380    -0.06290
O344        O  0.43770779  0.46490849  0.01862257    -0.87840
H345        H  0.39719337  0.48983817  0.05077454    -0.06120
H346        H  0.55182927  0.39719978  0.00987303    -0.06290
C347        C  0.41359381  0.49021332  0.02439247     0.87250
C348        C  0.49022974  0.47500958  0.91257414     0.87840
C349        C  0.52538632  0.41350787  0.00949912     0.87890
H350        H  0.51048020  0.55149673  0.10256280    -0.06270
O351        O  0.49821318  0.59128641  0.01680977    -0.75300
Mg352      Mg  0.46666708  0.44168405  0.06885588     1.58000
H353        H  0.44826726  0.60281463  0.98908722    -0.06290
C354        C  0.36624848  0.46719512  0.91829570     0.92870
O355        O  0.41602432  0.38006363  0.99832467    -0.82530
C356        C  0.41921511  0.36614177  0.03208898     0.92930
O357        O  0.50139235  0.58464884  0.87891867    -0.82510
Mg358      Mg  0.55821952  0.56912470  0.03279512     1.58180
O359        O  0.38195528  0.44192154  0.93962704    -0.80850
O360        O  0.61988317  0.49903486  0.08407233    -0.82540
O361        O  0.54096685  0.45459481  0.45911148    -0.88130
C362        C  0.54941395  0.47923271  0.57482168     0.87900
Mg363      Mg  0.54612452  0.49869572  0.41507498     1.58150
O364        O  0.45571096  0.45938642  0.54036429    -0.87860
O365        O  0.50332087  0.40871966  0.47926978    -0.75190
C366        C  0.42358518  0.63548387  0.46470059     0.92950
O367        O  0.59228610  0.52068043  0.49796948    -0.75000
O368        O  0.45454894  0.63033065  0.44593376    -0.82510
Mg369      Mg  0.58615881  0.45461762  0.50185574     1.57960
C370        C  0.36912315  0.53715931  0.58036794     0.92870
O371        O  0.59065361  0.38935474  0.51117507    -0.80770
H372        H  0.41608015  0.42463420  0.51745083    -0.06120
C373        C  0.48270310  0.57503732  0.54801531     0.87810
O374        O  0.47997929  0.50298743  0.40933824    -0.75280
O375        O  0.54250394  0.45942562  0.54625113    -0.88050
O376        O  0.39226018  0.51072107  0.59037783    -0.80860
C377        C  0.46444994  0.42160676  0.63437603     0.92990
C378        C  0.57829150  0.36503801  0.53559973     0.92840
Mg379      Mg  0.41679094  0.54703408  0.50013855     1.57950
O380        O  0.41308785  0.61253754  0.49124352    -0.80780
O381        O  0.40946367  0.48106375  0.50396042    -0.75020
O382        O  0.48868591  0.40891310  0.61007954    -0.80860
O383        O  0.63080679  0.44665530  0.45391359    -0.82570
O384        O  0.51161333  0.58984957  0.38929808    -0.80890
C385        C  0.42674365  0.45362627  0.52073356     0.87280
O386        O  0.45974694  0.54105065  0.45491752    -0.88030
O387        O  0.46273451  0.54638705  0.54186570    -0.88140
O388        O  0.49941655  0.59264657  0.52072891    -0.75190
Mg389      Mg  0.49907141  0.41466598  0.54517251     1.57970
O390        O  0.44825074  0.45411536  0.63036255    -0.82570
H391        H  0.51798313  0.41609925  0.42326316    -0.06290
O392        O  0.54700486  0.54181162  0.45997430    -0.87840
H393        H  0.58554826  0.57698203  0.48405733    -0.06120
H394        H  0.42383435  0.51730777  0.41684693    -0.06290
C395        C  0.57530806  0.54786917  0.48048411     0.87250
C396        C  0.52095226  0.42611372  0.45248705     0.87840
C397        C  0.45311314  0.52060980  0.42671130     0.87890
H398        H  0.48622490  0.58519488  0.57715039    -0.06270
O399        O  0.52289595  0.49728507  0.59218861    -0.75300
Mg400      Mg  0.50278600  0.58588032  0.45460968     1.58000
H401        H  0.57870813  0.48179143  0.58485339    -0.06290
C402        C  0.63535518  0.46423753  0.42219146     0.92870
O403        O  0.55441338  0.54634970  0.37010647    -0.82530
C404        C  0.53665838  0.57794816  0.36540402     0.92930
O405        O  0.54643619  0.36945516  0.55302682    -0.82510
Mg406      Mg  0.45711138  0.50193473  0.58576612     1.58180
O407        O  0.61127832  0.48900165  0.41011016    -0.80850
O408        O  0.37372484  0.55613008  0.54946253    -0.82540
O409        O  0.06228300  0.96454591  0.01909069    -0.88130
C410        C  0.00984638  0.97417197  0.91311420     0.87900
Mg411      Mg  0.03341047  0.94133844  0.06937048     1.58150
O412        O  0.01819909  0.06192394  0.96439766    -0.87860
O413        O  0.09105193  0.01729667  0.00131079    -0.75190
C414        C  0.86549523  0.03168378  0.08163069     0.92950
O415        O  0.99843473  0.90796612  0.98282938    -0.75000
O416        O  0.87956373  0.99799657  0.08515971    -0.82510
Mg417      Mg  0.05833229  0.93041734  0.96658929     1.57960
C418        C  0.91620771  0.13189092  0.96711527     0.92870
O419        O  0.11821453  0.94189203  0.93999284    -0.80770
H420        H  0.04998252  0.10297231  0.98883987    -0.06120
C421        C  0.91274641  0.00827414  0.97499719     0.87810
O422        O  0.01714240  0.00131530  0.09152606    -0.75280
O423        O  0.03497166  0.98029439  0.93730864    -0.88050
O424        O  0.93774524  0.11676134  0.94158743    -0.80860
C425        C  0.03180539  0.08059086  0.86578450     0.92990
C426        C  0.13384539  0.96738484  0.91884006     0.92840
Mg427      Mg  0.94052839  0.06809606  0.03309556     1.57950
O428        O  0.88089726  0.05689225  0.06003711    -0.80780
O429        O  0.00016546  0.09116963  0.01675691    -0.75020
O430        O  0.05737105  0.05955572  0.88144465    -0.80860
O431        O  0.08458904  0.87977041  0.99875511    -0.82570
O432        O  0.94218816  0.93980881  0.11891308    -0.80890
C433        C  0.02381822  0.08624753  0.98950487     0.87280
O434        O  0.96437650  0.01854210  0.06249052    -0.88030
O435        O  0.93669871  0.03375591  0.98062908    -0.88140
O436        O  0.90781154  0.98126485  0.99891449    -0.75190
Mg437      Mg  0.06867329  0.03309816  0.94137548     1.57970
O438        O  0.99791482  0.08359703  0.87959897    -0.82570
H439        H  0.10266931  0.98958750  0.05120813    -0.06290
O440        O  0.98064621  0.93675046  0.03559752    -0.87840
H441        H  0.94846850  0.89633230  0.01054161    -0.06120
H442        H  0.98919677  0.05125716  0.10261342    -0.06290
C443        C  0.97482377  0.91279409  0.01015236     0.87250
C444        C  0.08622565  0.98999277  0.02490326     0.87840
C445        C  0.98974251  0.02475095  0.08641974     0.87890
H446        H  0.89632901  0.00841650  0.94864200    -0.06270
O447        O  0.98237103  0.99750562  0.90799429    -0.75300
Mg448      Mg  0.93048551  0.96583091  0.05892103     1.58000
H449        H  0.01065391  0.94780518  0.89670614    -0.06290
C450        C  0.08146549  0.86589856  0.03254330     0.92870
O451        O  0.00147273  0.91538227  0.12049851    -0.82530
C452        C  0.96772713  0.91871983  0.13452849     0.92930
O453        O  0.11986015  0.00113079  0.91551585    -0.82510
Mg454      Mg  0.96560024  0.05722647  0.93038043     1.58180
O455        O  0.06032124  0.88151205  0.05807919    -0.80850
O456        O  0.91344520  0.11790108  0.00085329    -0.82540
C457        C  0.83032904  0.95596755  0.39873228     0.03350
C458        C  0.82604226  0.92322575  0.37488422    -0.12800
C459        C  0.79342978  0.91963300  0.35072982     0.00850
C460        C  0.76572934  0.94848466  0.35088217    -0.11330
C461        C  0.77023588  0.98092358  0.37413929     0.03340
C462        C  0.80236522  0.98452943  0.39792977    -0.10750
H463        H  0.84776040  0.90093604  0.37507185     0.08930
H464        H  0.74061210  0.94576523  0.33263758     0.06460
H465        H  0.80552499  0.00959645  0.41616377     0.06310
C466        C  0.62578980  0.15315910  0.40313145     0.03350
C467        C  0.65472046  0.12534046  0.40289898    -0.12800
C468        C  0.65449406  0.09663777  0.37494615     0.00850
C469        C  0.62588005  0.09593851  0.34695224    -0.11330
C470        C  0.59728580  0.12394247  0.34709174     0.03340
C471        C  0.59721147  0.15256870  0.37503945    -0.10750
H472        H  0.67685227  0.12550540  0.42481975     0.08930
H473        H  0.62589142  0.07370896  0.32511951     0.06460
H474        H  0.57535317  0.17476289  0.37443028     0.06310
C475        C  0.45852007  0.10273114  0.16906300     0.03350
C476        C  0.42505680  0.12557638  0.17402258    -0.12800
C477        C  0.42041662  0.14795589  0.20783594     0.00850
C478        C  0.44926935  0.14744392  0.23559239    -0.11330
C479        C  0.48210205  0.12493754  0.23071078     0.03340
C480        C  0.48633581  0.10244432  0.19782887    -0.10750
H481        H  0.40303941  0.12587737  0.15204281     0.08930
H482        H  0.44618300  0.16493149  0.26119212     0.06460
H483        H  0.51145077  0.08429124  0.19461663     0.06310
C484        C  0.60139170  0.33012315  0.54232249     0.03350
C485        C  0.60237082  0.30263014  0.51330980    -0.12800
C486        C  0.62530012  0.27005605  0.51721575     0.00850
C487        C  0.64737567  0.26427638  0.55007480    -0.11330
C488        C  0.64726254  0.29128459  0.57959240     0.03340
C489        C  0.62422611  0.32474281  0.57569148    -0.10750
H490        H  0.58538693  0.30662272  0.48748649     0.08930
H491        H  0.66442591  0.23832165  0.55277474     0.06460
H492        H  0.62365978  0.34597291  0.59843250     0.06310
C493        C  0.20610727  0.08012081  0.64850588     0.03350
C494        C  0.23401408  0.05144047  0.64818910    -0.12800
C495        C  0.22983162  0.01910510  0.62467738     0.00850
C496        C  0.19774531  0.01549853  0.60075847    -0.11330
C497        C  0.16943904  0.04375402  0.60025589     0.03340
C498        C  0.17346899  0.07636128  0.62437246    -0.10750
H499        H  0.25903590  0.05422179  0.66654868     0.08930
H500        H  0.19481885  0.99062307  0.58223477     0.06460
H501        H  0.15155908  0.09846217  0.62435466     0.06310
C502        C  0.37322691  0.84593834  0.59612375     0.03350
C503        C  0.34529226  0.87464462  0.59580942    -0.12800
C504        C  0.34582857  0.90319335  0.62393693     0.00850
C505        C  0.37422777  0.90304841  0.65222321    -0.11330
C506        C  0.40216266  0.87429067  0.65227277     0.03340
C507        C  0.40160150  0.84558148  0.62434251    -0.10750
H508        H  0.32326421  0.87475645  0.57377772     0.08930
H509        H  0.37454759  0.92517424  0.67415429     0.06460
H510        H  0.42316617  0.82308748  0.62452025     0.06310
C511        C  0.57993637  0.85248616  0.79159831     0.03350
C512        C  0.55106090  0.85235194  0.76381769    -0.12800
C513        C  0.51790584  0.87449865  0.76844717     0.00850
C514        C  0.51346730  0.89737168  0.80107268    -0.11330
C515        C  0.54130124  0.89776671  0.82983622     0.03340
C516        C  0.57501396  0.87522191  0.82513743    -0.10750
H517        H  0.55435989  0.83458250  0.73844445     0.08930
H518        H  0.48817806  0.91530923  0.80408791     0.06460
H519        H  0.59702156  0.87541553  0.84712910     0.06310
C520        C  0.35215673  0.70631722  0.41945638     0.03350
C521        C  0.35151861  0.73413832  0.44816655    -0.12800
C522        C  0.37379588  0.72973496  0.48123564     0.00850
C523        C  0.39742118  0.69762527  0.48580010    -0.11330
C524        C  0.39952758  0.66974429  0.45719257     0.03340
C525        C  0.37660688  0.67392059  0.42369541    -0.10750
H526        H  0.33336263  0.75926215  0.44491367     0.08930
H527        H  0.41471809  0.69461701  0.51154265     0.06460
H528        H  0.37760876  0.65222574  0.40141418     0.06310
O529        O  0.53525590  0.01975679  0.93677080    -0.88130
C530        C  0.52476055  0.91396553  0.98931948     0.87900
Mg531      Mg  0.55862603  0.06963496  0.96616217     1.58150
O532        O  0.43691729  0.96534777  0.98000275    -0.87860
O533        O  0.48250392  0.00215340  0.90785297    -0.75190
C534        C  0.46733611  0.08133341  0.13334399     0.92950
O535        O  0.59139827  0.98282283  0.00089908    -0.75000
O536        O  0.50106882  0.08461904  0.11932477    -0.82510
Mg537      Mg  0.56911576  0.96707908  0.94086427     1.57960
C538        C  0.36586731  0.96771244  0.08063174     0.92870
O539        O  0.55785459  0.94070452  0.88084636    -0.80770
H540        H  0.39665491  0.99042352  0.94766066    -0.06120
C541        C  0.48916959  0.97563615  0.08581867     0.87810
O542        O  0.49865710  0.09216237  0.98203800    -0.75280
O543        O  0.51888607  0.93800668  0.96399854    -0.88050
O544        O  0.38145918  0.94233217  0.05935602    -0.80860
C545        C  0.41838216  0.86650868  0.96687978     0.92990
C546        C  0.53231171  0.91950941  0.86534693     0.92840
Mg547      Mg  0.43031335  0.03406934  0.05765773     1.57950
O548        O  0.44171714  0.06033286  0.11771020    -0.80780
O549        O  0.40803719  0.01810179  0.99766828    -0.75020
O550        O  0.43945922  0.88223785  0.94135099    -0.80860
O551        O  0.62011561  0.99928272  0.91505313    -0.82570
O552        O  0.56034578  0.11846018  0.05781048    -0.80890
C553        C  0.41297824  0.99079243  0.97408506     0.87280
O554        O  0.48055477  0.06327295  0.03460811    -0.88030
O555        O  0.46433507  0.98163080  0.06136541    -0.88140
O556        O  0.51666095  0.99892303  0.09107210    -0.75190
Mg557      Mg  0.46625030  0.94217655  0.93005922     1.57970
O558        O  0.41520347  0.88036531  0.00067371    -0.82570
H559        H  0.51025830  0.05215395  0.89651772    -0.06290
O560        O  0.56236572  0.03540843  0.01864863    -0.87840
H561        H  0.60260373  0.01034697  0.05103265    -0.06120
H562        H  0.44851226  0.10372597  0.00946363    -0.06290
C563        C  0.58633794  0.01001513  0.02457114     0.87250
C564        C  0.50983230  0.02572412  0.91283373     0.87840
C565        C  0.47487070  0.08727440  0.00919091     0.87890
H566        H  0.48796788  0.94944744  0.10231991    -0.06270
O567        O  0.50114906  0.90899162  0.01658949    -0.75300
Mg568      Mg  0.53320260  0.05868202  0.06867437     1.58000
H569        H  0.55113959  0.89757255  0.98885590    -0.06290
C570        C  0.63426066  0.03295254  0.91853278     0.92870
O571        O  0.58484075  0.12008883  0.99861477    -0.82530
C572        C  0.58166761  0.13398749  0.03239126     0.92930
O573        O  0.49858155  0.91621721  0.87940017    -0.82510
Mg574      Mg  0.44121723  0.93134938  0.03258489     1.58180
O575        O  0.61868671  0.05839690  0.93976782    -0.80850
O576        O  0.37961102  0.00158019  0.08375508    -0.82540
C577        C  0.64708836  0.20889988  0.08096465     0.03350
C578        C  0.62521944  0.17476394  0.07560528    -0.12800
C579        C  0.60334059  0.16955724  0.04147615     0.00850
C580        C  0.60400225  0.19815922  0.01349495    -0.11330
C581        C  0.62526840  0.23159506  0.01894598     0.03340
C582        C  0.64642440  0.23703990  0.05245857    -0.10750
H583        H  0.62519935  0.15272036  0.09756005     0.08930
H584        H  0.58790625  0.19438893  0.98707395     0.06460
H585        H  0.66234429  0.26354652  0.05639470     0.06310
C586        C  0.59613708  0.37481370  0.84487365     0.03350
C587        C  0.59624781  0.34601867  0.87266395    -0.12800
C588        C  0.62329198  0.34691900  0.90233273     0.00850
C589        C  0.65059306  0.37638467  0.90332023    -0.11330
C590        C  0.65085471  0.40450704  0.87482817     0.03340
C591        C  0.62350418  0.40395794  0.84566210    -0.10750
H592        H  0.57552970  0.32285272  0.87074891     0.08930
H593        H  0.67150110  0.37778223  0.92635751     0.06460
H594        H  0.62357008  0.42599779  0.82363790     0.06310
C595        C  0.45673720  0.39828241  0.66897342     0.03350
C596        C  0.48454318  0.39813542  0.69762848    -0.12800
C597        C  0.47989339  0.37537965  0.73030395     0.00850
C598        C  0.44742918  0.35214169  0.73458233    -0.11330
C599        C  0.41937735  0.35106391  0.70609666     0.03340
C600        C  0.42386632  0.37441989  0.67294923    -0.10750
H601        H  0.50991398  0.41600837  0.69458606     0.08930
H602        H  0.44420614  0.33444109  0.76002614     0.06460
H603        H  0.40212234  0.37411239  0.65069741     0.06310
C604        C  0.83035587  0.54133888  0.89787524     0.03350
C605        C  0.80133451  0.51374518  0.89778589    -0.12800
C606        C  0.76840663  0.51858938  0.87542608     0.00850
C607        C  0.76381828  0.55172830  0.85333698    -0.11330
C608        C  0.79180211  0.58036778  0.85315884     0.03340
C609        C  0.82561617  0.57515853  0.87546288    -0.10750
H610        H  0.80432127  0.48839603  0.91562999     0.08930
H611        H  0.73825096  0.55521868  0.83587543     0.06460
H612        H  0.84775881  0.59702848  0.87545651     0.06310
C613        C  0.35096145  0.79343270  0.91877237     0.03350
C614        C  0.37364236  0.82694844  0.92413753    -0.12800
C615        C  0.39661627  0.83103686  0.95762620     0.00850
C616        C  0.39649069  0.80169055  0.98486405    -0.11330
C617        C  0.37458493  0.76860494  0.97919896     0.03340
C618        C  0.35216761  0.76439827  0.94625121    -0.10750
H619        H  0.37304920  0.84962953  0.90284661     0.08930
H620        H  0.41331979  0.80470830  0.01091911     0.06460
H621        H  0.33563821  0.73832248  0.94195693     0.06310
C622        C  0.54376235  0.60136991  0.33073212     0.03350
C623        C  0.57662097  0.62512366  0.32649706    -0.12800
C624        C  0.58026655  0.64941249  0.29398965     0.00850
C625        C  0.55133504  0.64958450  0.26643161    -0.11330
C626        C  0.51886707  0.62630223  0.27073372     0.03340
C627        C  0.51524423  0.60227709  0.30271194    -0.10750
H628        H  0.59893816  0.62477747  0.34817796     0.08930
H629        H  0.55406204  0.66811943  0.24153007     0.06460
H630        H  0.49022240  0.58394506  0.30573339     0.06310
C631        C  0.37674194  0.65362452  0.09620471     0.03350
C632        C  0.40367498  0.65516921  0.12595691    -0.12800
C633        C  0.40368336  0.62696996  0.15443403     0.00850
C634        C  0.37622905  0.59784738  0.15408116    -0.11330
C635        C  0.34907803  0.59663157  0.12473823     0.03340
C636        C  0.34945375  0.62417326  0.09569901    -0.10750
H637        H  0.42436921  0.67839744  0.12735279     0.08930
H638        H  0.37601517  0.57622632  0.17651563     0.06460
H639        H  0.32863823  0.62236861  0.07260058     0.06310
C640        C  0.20883934  0.42047833  0.14860705     0.03350
C641        C  0.23673868  0.44919193  0.14792037    -0.12800
C642        C  0.23205114  0.48194296  0.12526603     0.00850
C643        C  0.19907210  0.48630654  0.10288414    -0.11330
C644        C  0.17002333  0.45876453  0.10348924     0.03340
C645        C  0.17489653  0.42530717  0.12640265    -0.10750
H646        H  0.26233032  0.44603367  0.16540429     0.08930
H647        H  0.19599668  0.51128379  0.08454170     0.06460
H648        H  0.15277418  0.40342038  0.12684994     0.06310
O649        O  0.03541078  0.48111868  0.06339191    -0.88130
C650        C  0.02533827  0.58654603  0.00997309     0.87900
Mg651      Mg  0.05863736  0.43063697  0.03476776     1.58150
O652        O  0.93744371  0.53549881  0.01967378    -0.87860
O653        O  0.98277216  0.49918309  0.09224977    -0.75190
C654        C  0.96735153  0.41758543  0.86763384     0.92950
O655        O  0.09179699  0.51708745  0.99917102    -0.75000
O656        O  0.00101591  0.41429964  0.88182318    -0.82510
Mg657      Mg  0.06946279  0.53361527  0.05898308     1.57960
C658        C  0.86593861  0.53222696  0.91952168     0.92870
O659        O  0.05804616  0.56047834  0.11880166    -0.80770
H660        H  0.89692351  0.51105791  0.05222500    -0.06120
C661        C  0.99014164  0.52426664  0.91410934     0.87810
O662        O  0.99859204  0.40823980  0.01897601    -0.75280
O663        O  0.01939325  0.56274912  0.03553461    -0.88050
O664        O  0.88167444  0.55784114  0.94043348    -0.80860
C665        C  0.91899804  0.63441700  0.03235238     0.92990
C666        C  0.03254522  0.58178196  0.13424213     0.92840
Mg667      Mg  0.93058346  0.46614074  0.94275286     1.57950
O668        O  0.94184672  0.43895175  0.88299148    -0.80780
O669        O  0.90823561  0.48279127  0.00252559    -0.75020
O670        O  0.94010718  0.61880211  0.05788378    -0.80860
O671        O  0.12029263  0.50144895  0.08516592    -0.82570
O672        O  0.06027277  0.38103446  0.94377617    -0.80890
C673        C  0.91330690  0.51029835  0.02583053     0.87280
O674        O  0.98069245  0.43702307  0.96629299    -0.88030
O675        O  0.96470511  0.51869143  0.93814138    -0.88140
O676        O  0.01734046  0.50051581  0.90938190    -0.75190
Mg677      Mg  0.96669186  0.55893973  0.06952008     1.57970
O678        O  0.91573439  0.62040998  0.99862142    -0.82570
H679        H  0.01062366  0.44946189  0.10422575    -0.06290
O680        O  0.06266646  0.46433240  0.98200091    -0.87840
H681        H  0.10315174  0.48881794  0.94949784    -0.06120
H682        H  0.94838415  0.39686547  0.99162209    -0.06290
C683        C  0.08675671  0.48957695  0.97585740     0.87250
C684        C  0.01007102  0.47554862  0.08750336     0.87840
C685        C  0.97483645  0.41317225  0.99182344     0.87890
H686        H  0.98984754  0.55050908  0.89748656    -0.06270
O687        O  0.00170014  0.59140748  0.98271012    -0.75300
Mg688      Mg  0.03335038  0.44075903  0.93223884     1.58000
H689        H  0.05180401  0.60283087  0.01021693    -0.06290
C690        C  0.13427908  0.46768130  0.08205203     0.92870
O691        O  0.08488022  0.37952431  0.00292895    -0.82530
C692        C  0.08166209  0.36556992  0.96916827     0.92930
O693        O  0.99885342  0.58513701  0.12015749    -0.82510
Mg694      Mg  0.94164977  0.56915742  0.96684943     1.58180
O695        O  0.11861043  0.44205367  0.06111896    -0.80850
O696        O  0.87979404  0.49838751  0.91650155    -0.82540
C697        C  0.90226934  0.12550152  0.65371356     0.03350
C698        C  0.87490148  0.09628902  0.65270912    -0.12800
C699        C  0.84748400  0.09590233  0.62353680     0.00850
C700        C  0.84784196  0.12406385  0.59508583    -0.11330
C701        C  0.87471230  0.15384631  0.59661304     0.03340
C702        C  0.90196526  0.15444238  0.62607256    -0.10750
H703        H  0.87491258  0.07402629  0.67450348     0.08930
H704        H  0.82732252  0.12246635  0.57173040     0.06460
H705        H  0.92274469  0.17758384  0.62788360     0.06310
C706        C  0.04115450  0.10263786  0.83049839     0.03350
C707        C  0.01371332  0.10333735  0.80139740    -0.12800
C708        C  0.01870156  0.12637980  0.76891493     0.00850
C709        C  0.05150378  0.14927319  0.76524750    -0.11330
C710        C  0.07978911  0.14895701  0.79351270     0.03340
C711        C  0.07483980  0.12534469  0.82642379    -0.10750
H712        H  0.98823051  0.08558565  0.80403604     0.08930
H713        H  0.05497533  0.16775702  0.74041746     0.06460
H714        H  0.09651437  0.12516600  0.84874465     0.06310
C715        C  0.67004659  0.95622379  0.60097239     0.03350
C716        C  0.67474064  0.92334605  0.62466967    -0.12800
C717        C  0.70822899  0.91928420  0.64762059     0.00850
C718        C  0.73584743  0.94821377  0.64691932    -0.11330
C719        C  0.73143836  0.98031603  0.62331409     0.03340
C720        C  0.69850644  0.98435846  0.60067903    -0.10750
H721        H  0.65300286  0.90107023  0.62477384     0.08930
H722        H  0.76107587  0.94565780  0.66501513     0.06460
H723        H  0.69514221  0.00935395  0.58238973     0.06310
C724        C  0.85310911  0.29236663  0.41963668     0.03350
C725        C  0.87583462  0.32603803  0.42359787    -0.12800
C726        C  0.89864001  0.33152453  0.45696899     0.00850
C727        C  0.89775113  0.30408490  0.48601044    -0.11330
C728        C  0.87561247  0.27095586  0.48189183     0.03340
C729        C  0.85361405  0.26510163  0.44892768    -0.10750
H730        H  0.87618214  0.34734085  0.40092180     0.08930
H731        H  0.91433212  0.30854907  0.51201591     0.06460
H732        H  0.83699776  0.23889195  0.44596717     0.06310
C733        C  0.95627160  0.09993529  0.32929731     0.03350
C734        C  0.98477637  0.10093765  0.30116257    -0.12800
C735        C  0.98142248  0.12542847  0.26940195     0.00850
C736        C  0.94945504  0.14949406  0.26606240    -0.11330
C737        C  0.91969059  0.14804048  0.29271498     0.03340
C738        C  0.92323550  0.12346613  0.32504003    -0.10750
H739        H  0.00953188  0.08225517  0.30400295     0.08930
H740        H  0.94736072  0.16945678  0.24227033     0.06460
H741        H  0.90052542  0.12235620  0.34630152     0.06310
C742        C  0.14843728  0.29260532  0.91970141     0.03350
C743        C  0.12609761  0.32626125  0.92573447    -0.12800
C744        C  0.10370181  0.33029664  0.95968486     0.00850
C745        C  0.10431076  0.30089421  0.98684855    -0.11330
C746        C  0.12543674  0.26750801  0.98026642     0.03340
C747        C  0.14711915  0.26322813  0.94683773    -0.10750
H748        H  0.12649920  0.34908372  0.90459166     0.08930
H749        H  0.08778709  0.30369044  0.01313821     0.06460
H750        H  0.16361329  0.23717202  0.94230824     0.06310
C751        C  0.09660070  0.12406128  0.15207163     0.03350
C752        C  0.09690123  0.15241331  0.12366158    -0.12800
C753        C  0.12416654  0.15090920  0.09436046     0.00850
C754        C  0.15140596  0.12165834  0.09348303    -0.11330
C755        C  0.15107717  0.09354429  0.12198194     0.03340
C756        C  0.12353270  0.09440221  0.15102685    -0.10750
H757        H  0.07610198  0.17560204  0.12436006     0.08930
H758        H  0.17297551  0.12099607  0.07098663     0.06460
H759        H  0.12333033  0.07222983  0.17290697     0.06310
C760        C  0.33065390  0.95821432  0.10267800     0.03350
C761        C  0.30125566  0.98530885  0.10291351    -0.12800
C762        C  0.26864975  0.98006951  0.12566624     0.00850
C763        C  0.26475145  0.94714741  0.14825625    -0.11330
C764        C  0.29357893  0.91942515  0.14880780     0.03340
C765        C  0.32683056  0.92472710  0.12570349    -0.10750
H766        H  0.30368773  0.01066064  0.08496151     0.08930
H767        H  0.23930440  0.94324648  0.16584085     0.06460
H768        H  0.34949086  0.90340294  0.12600022     0.06310
O769        O  0.20365575  0.20933794  0.70857381    -0.88130
C770        C  0.22950422  0.20222383  0.82430062     0.87900
Mg771      Mg  0.24796630  0.20413503  0.66451360     1.58150
O772        O  0.20856693  0.29573085  0.79004152    -0.87860
O773        O  0.15823774  0.24736287  0.72930057    -0.75190
C774        C  0.38468764  0.32756736  0.71336570     0.92950
O775        O  0.27025854  0.15817052  0.74729933    -0.75000
O776        O  0.38001596  0.29586532  0.69574527    -0.82510
Mg777      Mg  0.20425572  0.16433863  0.75170913     1.57960
C778        C  0.28643477  0.38409819  0.82772193     0.92870
O779        O  0.13903923  0.15939057  0.76197118    -0.80770
H780        H  0.17326878  0.33449472  0.76653416    -0.06120
C781        C  0.32417569  0.26955273  0.79727826     0.87810
O782        O  0.25221267  0.27014979  0.65830166    -0.75280
O783        O  0.20945197  0.20856219  0.79577007    -0.88050
O784        O  0.26131948  0.36028549  0.83968380    -0.80860
C785        C  0.17160910  0.28598531  0.88464972     0.92990
C786        C  0.11485430  0.17190659  0.78646727     0.92840
Mg787      Mg  0.29552530  0.33481447  0.74808916     1.57950
O788        O  0.36083938  0.33940770  0.73850294    -0.80780
O789        O  0.22951591  0.34127306  0.75230034    -0.75020
O790        O  0.15956751  0.26123426  0.86052197    -0.80860
O791        O  0.19606304  0.11932257  0.70386367    -0.82570
O792        O  0.33983889  0.23823660  0.63902557    -0.80890
C793        C  0.20239579  0.32418942  0.76980908     0.87280
O794        O  0.29010808  0.29089603  0.70378772    -0.88030
O795        O  0.29570147  0.28972417  0.79100678    -0.88140
O796        O  0.34141861  0.25212307  0.77022544    -0.75190
Mg797      Mg  0.16441004  0.25161548  0.79527231     1.57970
O798        O  0.20339365  0.30356008  0.88007233    -0.82570
H799        H  0.16508072  0.23295536  0.67314517    -0.06290
O800        O  0.29093752  0.20378753  0.70953626    -0.87840
H801        H  0.32639326  0.16509792  0.73276897    -0.06120
H802        H  0.26650715  0.32633874  0.66522058    -0.06290
C803        C  0.29725419  0.17533046  0.72969189     0.87250
C804        C  0.17529382  0.22968512  0.70229386     0.87840
C805        C  0.26979403  0.29718268  0.67541720     0.87890
H806        H  0.33437730  0.26632684  0.82641375    -0.06270
O807        O  0.24705741  0.22919663  0.84151871    -0.75300
Mg808      Mg  0.33513071  0.24793245  0.70421292     1.58000
H809        H  0.23255327  0.17308110  0.83454672    -0.06290
C810        C  0.21344603  0.11478393  0.67198220     0.92870
O811        O  0.29598479  0.19581672  0.61970963    -0.82530
C812        C  0.32781146  0.21327878  0.61511184     0.92930
O813        O  0.11938278  0.20393515  0.80351494    -0.82510
Mg814      Mg  0.25144420  0.29514358  0.83514086     1.58180
O815        O  0.23818572  0.13887272  0.65977349    -0.80850
O816        O  0.30404848  0.37942269  0.79602333    -0.82540
O817        O  0.76923401  0.21492034  0.18801974    -0.88130
C818        C  0.66330485  0.22518372  0.24092358     0.87900
Mg819      Mg  0.81939346  0.19174149  0.21722346     1.58150
O820        O  0.71464516  0.31278181  0.23151506    -0.87860
O821        O  0.75137890  0.26759686  0.15917658    -0.75190
C822        C  0.83124346  0.28296482  0.38433159     0.92950
O823        O  0.73264995  0.15861141  0.25209942    -0.75000
O824        O  0.83435294  0.24912474  0.37059761    -0.82510
Mg825      Mg  0.71656667  0.18097409  0.19216858     1.57960
C826        C  0.71789890  0.38449612  0.33138196     0.92870
O827        O  0.68983143  0.19227128  0.13218851    -0.80770
H828        H  0.73921782  0.35331157  0.19923266    -0.06120
C829        C  0.72480582  0.26026616  0.33716446     0.87810
O830        O  0.84166427  0.25172009  0.23314073    -0.75280
O831        O  0.68728003  0.23102892  0.21548220    -0.88050
O832        O  0.69227572  0.36889571  0.31035790    -0.80860
C833        C  0.61579813  0.33161826  0.21808910     0.92990
C834        C  0.66861502  0.21779953  0.11667723     0.92840
Mg835      Mg  0.78350436  0.31955332  0.30878988     1.57950
O836        O  0.81017992  0.30844278  0.36859863    -0.80780
O837        O  0.76733815  0.34185780  0.24893173    -0.75020
O838        O  0.63141893  0.31034630  0.19268525    -0.80860
O839        O  0.74900134  0.13025558  0.16617942    -0.82570
O840        O  0.86835928  0.19064952  0.30880247    -0.80890
C841        C  0.73990820  0.33687153  0.22552441     0.87280
O842        O  0.81250151  0.26942290  0.28568593    -0.88030
O843        O  0.73074746  0.28568235  0.31320721    -0.88140
O844        O  0.74837171  0.23294954  0.34209594    -0.75190
Mg845      Mg  0.69138745  0.28365471  0.18149921     1.57970
O846        O  0.62978009  0.33499309  0.25182462    -0.82570
H847        H  0.80148925  0.24008884  0.14772657    -0.06290
O848        O  0.78529287  0.18763224  0.26981013    -0.87840
H849        H  0.76034876  0.14721941  0.30209090    -0.06120
H850        H  0.85292998  0.30175694  0.26081396    -0.06290
C851        C  0.75992684  0.16360039  0.27570021     0.87250
C852        C  0.77507182  0.24038214  0.16409278     0.87840
C853        C  0.83659166  0.27532994  0.26038217     0.87890
H854        H  0.69837374  0.26066055  0.35350867    -0.06270
O855        O  0.65829545  0.24889809  0.26810868    -0.75300
Mg856      Mg  0.80837212  0.21692641  0.31986334     1.58000
H857        H  0.64696181  0.19875773  0.24062779    -0.06290
C858        C  0.78271552  0.11614203  0.16947411     0.92870
O859        O  0.87027152  0.16601187  0.24963927    -0.82530
C860        C  0.88412528  0.16951015  0.28341687     0.92930
O861        O  0.66534006  0.25149021  0.13076872    -0.82510
Mg862      Mg  0.68065622  0.30891135  0.28405390     1.58180
O863        O  0.80825464  0.13165323  0.19067415    -0.80850
O864        O  0.75161042  0.37045639  0.33465123    -0.82540
C865        C  0.14866375  0.79281579  0.08081804     0.03350
C866        C  0.12603920  0.82632809  0.07537855    -0.12800
C867        C  0.10329641  0.83048154  0.04175600     0.00850
C868        C  0.10361121  0.80122208  0.01441654    -0.11330
C869        C  0.12508323  0.76789162  0.02033172     0.03340
C870        C  0.14743143  0.76373571  0.05337524    -0.10750
H871        H  0.12655248  0.84899359  0.09668929     0.08930
H872        H  0.08719158  0.80448771  0.98814029     0.06460
H873        H  0.16393368  0.73766558  0.05776376     0.06310
C874        C  0.15156438  0.59367806  0.87624190     0.03350
C875        C  0.15151443  0.62117802  0.90532647    -0.12800
C876        C  0.12532428  0.65159694  0.90420527     0.00850
C877        C  0.09859387  0.65352834  0.87422400    -0.11330
C878        C  0.09825348  0.62530793  0.84574718     0.03340
C879        C  0.12487171  0.59547679  0.84657038    -0.10750
H880        H  0.17176891  0.61855000  0.92881421     0.08930
H881        H  0.07820992  0.67702439  0.87273099     0.06460
H882        H  0.12481171  0.57373689  0.82424885     0.06310
C883        C  0.91965017  0.64761480  0.70839602     0.03350
C884        C  0.92344836  0.62418452  0.67524310    -0.12800
C885        C  0.95671652  0.60113682  0.67016849     0.00850
C886        C  0.98551507  0.60191937  0.69794662    -0.11330
C887        C  0.98172723  0.62500506  0.73059623     0.03340
C888        C  0.94919820  0.64802328  0.73533107    -0.10750
H889        H  0.90073318  0.62352956  0.65398849     0.08930
H890        H  0.01079307  0.58406571  0.69429781     0.06460
H891        H  0.94677349  0.66652230  0.76027358     0.06310
C892        C  0.29342758  0.41895353  0.85087404     0.03350
C893        C  0.32684910  0.42425251  0.87366240    -0.12800
C894        C  0.33078583  0.45767328  0.89671936     0.00850
C895        C  0.30129847  0.48470410  0.89685353    -0.11330
C896        C  0.26854164  0.47949633  0.87429794     0.03340
C897        C  0.26456983  0.44661693  0.85168252    -0.10750
H898        H  0.34955848  0.40298405  0.87308560     0.08930
H899        H  0.30385123  0.51002312  0.91482729     0.06460
H900        H  0.23907820  0.44273692  0.83418107     0.06310
O901        O  0.20987772  0.70867271  0.20441134    -0.88130
C902        C  0.20292259  0.82433132  0.23012704     0.87900
Mg903      Mg  0.20458273  0.66468155  0.24869365     1.58150
O904        O  0.29625502  0.78999357  0.20856832    -0.87860
O905        O  0.24745428  0.72928049  0.15857064    -0.75190
C906        C  0.32888089  0.71338294  0.38461184     0.92950
O907        O  0.15890317  0.74775252  0.27098182    -0.75000
O908        O  0.29681632  0.69627153  0.38030869    -0.82510
Mg909      Mg  0.16494755  0.75176449  0.20496364     1.57960
C910        C  0.38509941  0.82766114  0.28597330     0.92870
O911        O  0.16006505  0.76114672  0.13973372    -0.80770
H912        H  0.33467096  0.76626852  0.17301471    -0.06120
C913        C  0.27083934  0.79737018  0.32438828     0.87810
O914        O  0.27058482  0.65817964  0.25265006    -0.75280
O915        O  0.20913551  0.79585180  0.20995871    -0.88050
O916        O  0.36118431  0.83979353  0.26108516    -0.80860
C917        C  0.28670436  0.88448494  0.17195790     0.92990
C918        C  0.17197784  0.78601777  0.11565896     0.92840
Mg919      Mg  0.33581316  0.74784311  0.29518476     1.57950
O920        O  0.34116911  0.73789759  0.36035654    -0.80780
O921        O  0.34173180  0.75202546  0.22917931    -0.75020
O922        O  0.26181242  0.86048383  0.15991106    -0.80860
O923        O  0.11996406  0.70404158  0.19694457    -0.82570
O924        O  0.23869824  0.63938418  0.34044602    -0.80890
C925        C  0.32457318  0.76961723  0.20220154     0.87280
O926        O  0.29162789  0.70372754  0.29028700    -0.88030
O927        O  0.29080958  0.79091490  0.29581013    -0.88140
O928        O  0.25326122  0.77048136  0.34172106    -0.75190
Mg929      Mg  0.25187474  0.79529055  0.16471314     1.57970
O930        O  0.30424326  0.87988165  0.20370682    -0.82570
H931        H  0.23311739  0.67312475  0.16569527    -0.06290
O932        O  0.20441709  0.70983001  0.29162376    -0.87840
H933        H  0.16599677  0.73358101  0.32716454    -0.06120
H934        H  0.32686204  0.66492018  0.26673025    -0.06290
C935        C  0.17608701  0.73020374  0.29797712     0.87250
C936        C  0.22996563  0.70230176  0.17588017     0.87840
C937        C  0.29774592  0.67524548  0.27007498     0.87890
H938        H  0.26786703  0.82654711  0.33456475    -0.06270
O939        O  0.23000424  0.84145451  0.24760743    -0.75300
Mg940      Mg  0.24876775  0.70452777  0.33554670     1.58000
H941        H  0.17379783  0.83459696  0.23335700    -0.06290
C942        C  0.11527262  0.67229166  0.21445935     0.92870
O943        O  0.19630305  0.61990828  0.29663767    -0.82530
C944        C  0.21379454  0.61538573  0.32842568     0.92930
O945        O  0.20372307  0.80364828  0.12013096    -0.82510
Mg946      Mg  0.29598959  0.83502910  0.25158775     1.58180
O947        O  0.13926661  0.66013557  0.23927877    -0.80850
O948        O  0.38056746  0.79575609  0.30325713    -0.82540
C949        C  0.82997949  0.04107978  0.10330215     0.03350
C950        C  0.80083119  0.01366506  0.10342018    -0.12800
C951        C  0.76771947  0.01890712  0.12544209     0.00850
C952        C  0.76343264  0.05186967  0.14780968    -0.11330
C953        C  0.79153807  0.08038110  0.14796983     0.03340
C954        C  0.82533689  0.07501885  0.12560157    -0.10750
H955        H  0.80389537  0.98803835  0.08596627     0.08930
H956        H  0.73809248  0.05527925  0.16562150     0.06460
H957        H  0.84757068  0.09679523  0.12555606     0.06310
C958        C  0.65275942  0.90241639  0.12724074     0.03350
C959        C  0.65230306  0.87466221  0.09839405    -0.12800
C960        C  0.62427611  0.84605778  0.09880388     0.00850
C961        C  0.59693441  0.84500551  0.12808416    -0.11330
C962        C  0.59761062  0.87290794  0.15673225     0.03340
C963        C  0.62532933  0.90174067  0.15642645    -0.10750
H964        H  0.67373568  0.87528966  0.07576806     0.08930
H965        H  0.57496595  0.82289583  0.12833570     0.06460
H966        H  0.62555800  0.92346998  0.17875513     0.06310
C967        C  0.64737065  0.70871731  0.92023313     0.03350
C968        C  0.62502395  0.67484513  0.92478645    -0.12800
C969        C  0.60220265  0.66973246  0.95824736     0.00850
C970        C  0.60196009  0.69836213  0.98617729    -0.11330
C971        C  0.62445628  0.73125951  0.98206727     0.03340
C972        C  0.64683922  0.73638805  0.94917763    -0.10750
H973        H  0.62534688  0.65292638  0.90270766     0.08930
H974        H  0.58388381  0.69500990  0.01133743     0.06460
H975        H  0.66429348  0.76203154  0.94618672     0.06310
C976        C  0.41975344  0.85100104  0.29345242     0.03350
C977        C  0.42369761  0.87488425  0.32628323    -0.12800
C978        C  0.45710614  0.89781859  0.33104484     0.00850
C979        C  0.48610309  0.89598977  0.30354209    -0.11330
C980        C  0.48165140  0.87301249  0.27104391     0.03340
C981        C  0.44860388  0.85098904  0.26575957    -0.10750
H982        H  0.40122839  0.87549726  0.34781897     0.08930
H983        H  0.51206326  0.91288208  0.30713755     0.06460
H984        H  0.44557730  0.83347558  0.24015598     0.06310
C985        C  0.90345320  0.62563671  0.34720627     0.03350
C986        C  0.87498708  0.59743104  0.34712316    -0.12800
C987        C  0.84669944  0.59773780  0.37553233     0.00850
C988        C  0.84683783  0.62600618  0.40390298    -0.11330
C989        C  0.87529894  0.65415753  0.40361854     0.03340
C990        C  0.90363660  0.65409407  0.37535331    -0.10750
H991        H  0.87488293  0.57535857  0.32513386     0.08930
H992        H  0.82495877  0.62607117  0.42610614     0.06460
H993        H  0.92574558  0.67606726  0.37528744     0.06310
C994        C  0.08032865  0.64920357  0.20740926     0.03350
C995        C  0.07532122  0.62620050  0.17409348    -0.12800
C996        C  0.04162479  0.60361397  0.16967263     0.00850
C997        C  0.01389478  0.60428943  0.19853852    -0.11330
C998        C  0.01891733  0.62683765  0.23129625     0.03340
C999        C  0.05214985  0.64889087  0.23583271    -0.10750
H1000       H  0.09701756  0.62632032  0.15177327     0.08930
H1001       H  0.98820954  0.58687717  0.19558854     0.06460
H1002       H  0.05585778  0.66634079  0.26137985     0.06310
C1003       C  0.85316669  0.79158947  0.58125510     0.03350
C1004       C  0.85408024  0.76384399  0.55241221    -0.12800
C1005       C  0.87660059  0.76907743  0.51966190     0.00850
C1006       C  0.89856933  0.80232168  0.51516917    -0.11330
C1007       C  0.89887501  0.83036165  0.54368367     0.03340
C1008       C  0.87575214  0.82530102  0.57692513    -0.10750
H1009       H  0.83689259  0.73800390  0.55533106     0.08930
H1010       H  0.91596376  0.80612314  0.48957786     0.06460
H1011       H  0.87578447  0.84696204  0.59926032     0.06310
C1012       C  0.67023936  0.45735024  0.39904555     0.03350
C1013       C  0.69836304  0.48580581  0.39884427    -0.12800
C1014       C  0.73152413  0.48148029  0.37664310     0.00850
C1015       C  0.73652431  0.44884659  0.35387882    -0.11330
C1016       C  0.70884179  0.41992579  0.35318249     0.03340
C1017       C  0.67522064  0.42417771  0.37588046    -0.10750
H1018       H  0.69465161  0.51122240  0.41648731     0.08930
H1019       H  0.76214706  0.44601176  0.33635476     0.06460
H1020       H  0.65356972  0.40181505  0.37598227     0.06310
C1021       C  0.91980863  0.85058194  0.20684367     0.03350
C1022       C  0.92488443  0.87400515  0.17386061    -0.12800
C1023       C  0.95841667  0.89690026  0.16992750     0.00850
C1024       C  0.98566294  0.89656094  0.19922801    -0.11330
C1025       C  0.98055802  0.87370937  0.23186117     0.03340
C1026       C  0.94782510  0.85066336  0.23540586    -0.10750
H1027       H  0.90338834  0.87391868  0.15136547     0.08930
H1028       H  0.01107026  0.91442144  0.19660843     0.06460
H1029       H  0.94423005  0.83232050  0.26031848     0.06310
C1030       C  0.12533262  0.84592409  0.40380848     0.03350
C1031       C  0.09714401  0.84598483  0.37525574    -0.12800
C1032       C  0.09699811  0.87467182  0.34732197     0.00850
C1033       C  0.12508916  0.90325203  0.34759677    -0.11330
C1034       C  0.15329685  0.90309671  0.37604552     0.03340
C1035       C  0.15317376  0.87481238  0.40438461    -0.10750
H1036       H  0.07566456  0.82342963  0.37432880     0.08930
H1037       H  0.12503170  0.92546766  0.32575674     0.06460
H1038       H  0.17444470  0.87570277  0.42711085     0.06310
C1039       C  0.29277561  0.07993717  0.35166309     0.03350
C1040       C  0.32610471  0.07590568  0.37481869    -0.12800
C1041       C  0.33064658  0.04308696  0.39859639     0.00850
C1042       C  0.30219181  0.01494393  0.39878476    -0.11330
C1043       C  0.26940966  0.01888325  0.37590147     0.03340
C1044       C  0.26515441  0.05097127  0.35220451    -0.10750
H1045       H  0.34782725  0.09819716  0.37484447     0.08930
H1046       H  0.30546369  0.99001043  0.41717359     0.06460
H1047       H  0.24003689  0.05352710  0.33396039     0.06310
C1048       C  0.14874915  0.70680045  0.58020933     0.03350
C1049       C  0.12498450  0.67387794  0.57661160    -0.12800
C1050       C  0.10103693  0.66941685  0.54394865     0.00850
C1051       C  0.10133277  0.69753585  0.51553825    -0.11330
C1052       C  0.12451977  0.73001293  0.51944700     0.03340
C1053       C  0.14804222  0.73463742  0.55156715    -0.10750
H1054       H  0.12516445  0.65208257  0.59882028     0.08930
H1055       H  0.08376184  0.69397011  0.49004889     0.06460
H1056       H  0.16558216  0.76025195  0.55443163     0.06310
C1057       C  0.16927361  0.95808325  0.89702082     0.03350
C1058       C  0.19871604  0.98519808  0.89703925    -0.12800
C1059       C  0.23140680  0.98017495  0.87424417     0.00850
C1060       C  0.23489886  0.94770777  0.85089897    -0.11330
C1061       C  0.20625693  0.91979600  0.85047431     0.03340
C1062       C  0.17315578  0.92475372  0.87381927    -0.10750
H1063       H  0.19615398  0.01044899  0.91510802     0.08930
H1064       H  0.25986720  0.94423315  0.83258139     0.06460
H1065       H  0.15057272  0.90333774  0.87346749     0.06310
C1066       C  0.40381826  0.12398140  0.84617048     0.03350
C1067       C  0.37538810  0.09580993  0.84629010    -0.12800
C1068       C  0.34741127  0.09592735  0.87494369     0.00850
C1069       C  0.34780004  0.12411526  0.90340769    -0.11330
C1070       C  0.37627079  0.15233561  0.90306479     0.03340
C1071       C  0.40447827  0.15218909  0.87458267    -0.10750
H1072       H  0.37506564  0.07385805  0.82417863     0.08930
H1073       H  0.32597877  0.12415280  0.92566321     0.06460
H1074       H  0.42679350  0.17394645  0.87447033     0.06310
C1075       C  0.39753209  0.33063650  0.04122422     0.03350
C1076       C  0.39734923  0.30160133  0.01367034    -0.12800
C1077       C  0.37507134  0.26860915  0.01867498     0.00850
C1078       C  0.35242547  0.26448795  0.05152113    -0.11330
C1079       C  0.35250405  0.29245905  0.08018419     0.03340
C1080       C  0.37513183  0.32603280  0.07504452    -0.10750
H1081       H  0.41504775  0.30462871  0.98820047     0.08930
H1082       H  0.33441305  0.23929296  0.05485975     0.06460
H1083       H  0.37533029  0.34813107  0.09694618     0.06310
C1084       C  0.54354816  0.10069825  0.66921547     0.03350
C1085       C  0.57677209  0.12385199  0.67417319    -0.12800
C1086       C  0.58104632  0.14656100  0.70777527     0.00850
C1087       C  0.55209309  0.14593436  0.73540045    -0.11330
C1088       C  0.51948984  0.12310044  0.73049174     0.03340
C1089       C  0.51512967  0.10087593  0.69737861    -0.10750
H1090       H  0.59913836  0.12374544  0.65252363     0.08930
H1091       H  0.55491165  0.16354091  0.76094917     0.06460
H1092       H  0.48972437  0.08318359  0.69373750     0.06310
O1093       O  0.04011195  0.04602847  0.54023362    -0.88130
C1094       C  0.04731364  0.01898753  0.42474706     0.87900
Mg1095     Mg  0.04524012  0.00224852  0.58475979     1.58150
O1096       O  0.95378668  0.04034806  0.45882586    -0.87860
O1097       O  0.00196011  0.09114766  0.51915924    -0.75190
C1098       C  0.92195942  0.86527867  0.53665773     0.92950
O1099       O  0.09135342  0.97906944  0.50209956    -0.75000
O1100       O  0.95365625  0.87005707  0.55426758    -0.82510
Mg1101     Mg  0.08518832  0.04498805  0.49708034     1.57960
C1102       C  0.86505845  0.96300239  0.42204383     0.92870
O1103       O  0.09013309  0.11002509  0.48608836    -0.80770
H1104       H  0.91516631  0.07608265  0.48193345    -0.06120
C1105       C  0.97989506  0.92490864  0.45256672     0.87810
O1106       O  0.97921828  0.99804555  0.59102356    -0.75280
O1107       O  0.04099207  0.03940131  0.45304840    -0.88050
O1108       O  0.88917341  0.98763220  0.40974649    -0.80860
C1109       C  0.96345340  0.07645028  0.36399405     0.92990
C1110       C  0.07727882  0.13423615  0.46182757     0.92840
Mg1111     Mg  0.91451072  0.95420417  0.50160559     1.57950
O1112       O  0.90990376  0.88909617  0.51163375    -0.80780
O1113       O  0.90819719  0.02008952  0.49689330    -0.75020
O1114       O  0.98828042  0.08860448  0.38798884    -0.80860
O1115       O  0.13025565  0.05359431  0.54483796    -0.82570
O1116       O  0.01120843  0.91062607  0.61105162    -0.80890
C1117       C  0.92534924  0.04688559  0.47899890     0.87280
O1118       O  0.95855776  0.95984434  0.54577255    -0.88030
O1119       O  0.95957521  0.95335326  0.45854999    -0.88140
O1120       O  0.99741786  0.90804322  0.47978326    -0.75190
Mg1121     Mg  0.99779692  0.08439741  0.45327261     1.57970
O1122       O  0.94591945  0.04468969  0.36871511    -0.82570
H1123       H  0.01642416  0.08485551  0.57535084    -0.06290
O1124       O  0.04576839  0.95880824  0.54015730    -0.87840
H1125       H  0.08441306  0.92307548  0.51709037    -0.06120
H1126       H  0.92303289  0.98362582  0.58418612    -0.06290
C1127       C  0.07420658  0.95226912  0.51999478     0.87250
C1128       C  0.01971076  0.07439736  0.54628590     0.87840
C1129       C  0.95221388  0.98031746  0.57401931     0.87890
H1130       H  0.98324236  0.91443042  0.42351551    -0.06270
O1131       O  0.02029849  0.00131119  0.40770402    -0.75300
Mg1132     Mg  0.00154803  0.91482469  0.54574134     1.58000
H1133       H  0.07648914  0.01568990  0.41456038    -0.06290
C1134       C  0.13467987  0.03654632  0.57690548     0.92870
O1135       O  0.05346665  0.95476630  0.63011035    -0.82530
C1136       C  0.03606618  0.92294751  0.63493971     0.92930
O1137       O  0.04516880  0.12961182  0.44495569    -0.82510
Mg1138     Mg  0.95430317  0.99715229  0.41407184     1.58180
O1139       O  0.11043666  0.01211277  0.58939994    -0.80850
O1140       O  0.86957610  0.94564652  0.45390589    -0.82540
C1141       C  0.95859722  0.39627100  0.83174034     0.03350
C1142       C  0.92387716  0.37564665  0.82538153    -0.12800
C1143       C  0.91848995  0.35483992  0.79061709     0.00850
C1144       C  0.94721131  0.35583761  0.76277577    -0.11330
C1145       C  0.98156665  0.37532631  0.76942844     0.03340
C1146       C  0.98733900  0.39489461  0.80387111    -0.10750
H1147       H  0.90156292  0.37568464  0.84708094     0.08930
H1148       H  0.94298438  0.34091732  0.73574957     0.06460
H1149       H  0.01453574  0.40919964  0.80903265     0.06310
C1150       C  0.09796073  0.37174042  0.65371020     0.03350
C1151       C  0.13125559  0.39375377  0.65763371    -0.12800
C1152       C  0.15601811  0.39931152  0.62634695     0.00850
C1153       C  0.15013979  0.37704717  0.59311332    -0.11330
C1154       C  0.11939556  0.35132389  0.59115716     0.03340
C1155       C  0.09191474  0.35087316  0.62016787    -0.10750
H1156       H  0.13722434  0.40676761  0.68517412     0.08930
H1157       H  0.16945126  0.37873689  0.56891493     0.06460
H1158       H  0.06638262  0.33338089  0.61677676     0.06310
C1159       C  0.10003156  0.16936217  0.45471046     0.03350
C1160       C  0.09760213  0.19884499  0.48164141    -0.12800
C1161       C  0.12120583  0.23130159  0.47869936     0.00850
C1162       C  0.14662151  0.23472906  0.44776693    -0.11330
C1163       C  0.14824517  0.20679363  0.41918741     0.03340
C1164       C  0.12538719  0.17326842  0.42302271    -0.10750
H1165       H  0.07699362  0.19637959  0.50484580     0.08930
H1166       H  0.16514493  0.25966588  0.44548651     0.06460
H1167       H  0.12657426  0.15104147  0.40127874     0.06310
C1168       C  0.29412303  0.58274438  0.64614731     0.03350
C1169       C  0.26619560  0.55403793  0.64489860    -0.12800
C1170       C  0.27364208  0.51825456  0.62725271     0.00850
C1171       C  0.30956807  0.51311085  0.60949379    -0.11330
C1172       C  0.33479499  0.54372054  0.60441056     0.03340
C1173       C  0.32789273  0.57848795  0.62406230    -0.10750
H1174       H  0.23905329  0.56037024  0.65841822     0.08930
H1175       H  0.31882375  0.48548826  0.59913807     0.06460
H1176       H  0.34871741  0.60158840  0.62269360     0.06310
O1177       O  0.23193057  0.28617002  0.18836301    -0.88130
C1178       C  0.33749640  0.27562315  0.24063396     0.87900
Mg1179     Mg  0.18171779  0.30896483  0.21755643     1.58150
O1180       O  0.28610954  0.18797952  0.23053388    -0.87860
O1181       O  0.24935831  0.23392799  0.15856101    -0.75190
C1182       C  0.17037207  0.21615717  0.38401569     0.92950
O1183       O  0.26839102  0.34194387  0.25254811    -0.75000
O1184       O  0.16702919  0.24998241  0.37025383    -0.82510
Mg1185     Mg  0.28435556  0.32018082  0.19231994     1.57960
C1186       C  0.28358757  0.11539006  0.32991899     0.92870
O1187       O  0.31041593  0.30912909  0.13197145    -0.80770
H1188       H  0.26127900  0.14796858  0.19769341    -0.06120
C1189       C  0.27615437  0.23946333  0.33674049     0.87810
O1190       O  0.15950263  0.24882336  0.23297111    -0.75280
O1191       O  0.31367133  0.26995925  0.21503727    -0.88050
O1192       O  0.30912387  0.13124632  0.30897460    -0.80860
C1193       C  0.38488326  0.16958111  0.21699159     0.92990
C1194       C  0.33137363  0.28360014  0.11610192     0.92840
Mg1195     Mg  0.21762746  0.18028430  0.30802206     1.57950
O1196       O  0.19149934  0.19076064  0.36823310    -0.80780
O1197       O  0.23349091  0.15865615  0.24780747    -0.75020
O1198       O  0.36926002  0.19086104  0.19161561    -0.80860
O1199       O  0.25180300  0.37099608  0.16682038    -0.82570
O1200       O  0.13255893  0.30949009  0.30902558    -0.80890
C1201       C  0.26079960  0.16398318  0.22430854     0.87280
O1202       O  0.18847222  0.23061737  0.28542522    -0.88030
O1203       O  0.27018118  0.21429630  0.31254289    -0.88140
O1204       O  0.25263855  0.26677015  0.34193022    -0.75190
Mg1205     Mg  0.30926108  0.21752531  0.18073030     1.57970
O1206       O  0.37090687  0.16607274  0.25069473    -0.82570
H1207       H  0.19975895  0.26242909  0.14741425    -0.06290
O1208       O  0.21574529  0.31274089  0.27011429    -0.87840
H1209       H  0.24074455  0.35282760  0.30270303    -0.06120
H1210       H  0.14816632  0.19850720  0.26011153    -0.06290
C1211       C  0.24113796  0.33670795  0.27616596     0.87250
C1212       C  0.22598013  0.26132735  0.16388985     0.87840
C1213       C  0.16448854  0.22494667  0.25999041     0.87890
H1214       H  0.30258562  0.23887754  0.35305251    -0.06270
O1215       O  0.34234411  0.25173939  0.26768731    -0.75300
Mg1216     Mg  0.19266369  0.28291239  0.31987204     1.58000
H1217       H  0.35380469  0.30206926  0.24062022    -0.06290
C1218       C  0.21802766  0.38490918  0.17023687     0.92870
O1219       O  0.13089920  0.33444280  0.24999441    -0.82530
C1220       C  0.11694242  0.33087000  0.28371472     0.92930
O1221       O  0.33489538  0.24990125  0.13008316    -0.82510
Mg1222     Mg  0.32017862  0.19154699  0.28310416     1.58180
O1223       O  0.19261202  0.36920156  0.19144219    -0.80850
O1224       O  0.24980469  0.12925056  0.33325856    -0.82540
C1225       C  0.87578904  0.34868331  0.09884132     0.03350
C1226       C  0.84357836  0.37260579  0.10415180    -0.12800
C1227       C  0.84433418  0.40207179  0.13128549     0.00850
C1228       C  0.87505120  0.40527165  0.15650282    -0.11330
C1229       C  0.90636939  0.38087791  0.15276115     0.03340
C1230       C  0.90796985  0.35464990  0.12252897    -0.10750
H1231       H  0.81797600  0.36953428  0.08697293     0.08930
H1232       H  0.87470114  0.42693713  0.17890391     0.06460
H1233       H  0.93429151  0.33886835  0.11850563     0.06310
C1234       C  0.89432073  0.16744599  0.95829707     0.03350
C1235       C  0.87490930  0.17382249  0.92308513    -0.12800
C1236       C  0.85612473  0.20933176  0.91642473     0.00850
C1237       C  0.85987610  0.23855601  0.94358860    -0.11330
C1238       C  0.87533743  0.23132399  0.98003661     0.03340
C1239       C  0.89148597  0.19507687  0.98719023    -0.10750
H1240       H  0.87450719  0.15163649  0.90127562     0.08930
H1241       H  0.85005895  0.26692854  0.93594514     0.06460
H1242       H  0.90269385  0.18795655  0.01521082     0.06310
C1243       C  0.04431933  0.39887342  0.33155332     0.03350
C1244       C  0.07732921  0.37536075  0.32670023    -0.12800
C1245       C  0.08152830  0.35266260  0.29304254     0.00850
C1246       C  0.05265720  0.35359633  0.26534108    -0.11330
C1247       C  0.02012915  0.37648015  0.27036728     0.03340
C1248       C  0.01602221  0.39894114  0.30333058    -0.10750
H1249       H  0.09964044  0.37529258  0.34838394     0.08930
H1250       H  0.05554931  0.33637201  0.23953146     0.06460
H1251       H  0.99094774  0.41712884  0.30677200     0.06310
C1252       C  0.70572384  0.58083744  0.14903792     0.03350
C1253       C  0.67306649  0.57597963  0.12508861    -0.12800
C1254       C  0.66903307  0.54216521  0.10263143     0.00850
C1255       C  0.69784869  0.51442321  0.10401737    -0.11330
C1256       C  0.73004413  0.51938919  0.12739772     0.03340
C1257       C  0.73380649  0.55240610  0.14988017    -0.10750
H1258       H  0.65086254  0.59777510  0.12453387     0.08930
H1259       H  0.69516019  0.48865022  0.08671300     0.06460
H1260       H  0.75851565  0.55584868  0.16854296     0.06310
C1261       C  0.90431630  0.87404210  0.84674695     0.03350
C1262       C  0.90458020  0.84614000  0.87555393    -0.12800
C1263       C  0.87560066  0.84590990  0.90329240     0.00850
C1264       C  0.84690339  0.87385337  0.90267429    -0.11330
C1265       C  0.84734231  0.90218933  0.87441228     0.03340
C1266       C  0.87587387  0.90224626  0.84632889    -0.10750
H1267       H  0.92669244  0.82419312  0.87586083     0.08930
H1268       H  0.82477653  0.87406239  0.92463026     0.06460
H1269       H  0.87595083  0.92420703  0.82422909     0.06310
C1270       C  0.08044435  0.85125376  0.70563461     0.03350
C1271       C  0.07638497  0.87559848  0.67322486    -0.12800
C1272       C  0.04363722  0.89959133  0.66962391     0.00850
C1273       C  0.01580383  0.89907367  0.69839687    -0.11330
C1274       C  0.02000701  0.87520421  0.73049721     0.03340
C1275       C  0.05204284  0.85120656  0.73374003    -0.10750
H1276       H  0.09831040  0.87580516  0.65112679     0.08930
H1277       H  0.99080588  0.91749119  0.69580964     0.06460
H1278       H  0.05492981  0.83221148  0.75825799     0.06310
C1279       C  0.70927923  0.08034670  0.85239098     0.03350
C1280       C  0.67528881  0.07556638  0.87461902    -0.12800
C1281       C  0.67010102  0.04190391  0.89719548     0.00850
C1282       C  0.69882466  0.01404504  0.89734360    -0.11330
C1283       C  0.73178599  0.01832136  0.87491983     0.03340
C1284       C  0.73690977  0.05137120  0.85275766    -0.10750
H1285       H  0.65331756  0.09759668  0.87435382     0.08930
H1286       H  0.69548424  0.98881938  0.91530716     0.06460
H1287       H  0.76251807  0.05444895  0.83525970     0.06310
C1288       C  0.85075193  0.70692011  0.08018928     0.03350
C1289       C  0.87389318  0.67367749  0.07499207    -0.12800
C1290       C  0.89717031  0.66983410  0.04163289     0.00850
C1291       C  0.89721187  0.69933896  0.01456809    -0.11330
C1292       C  0.87483019  0.73203412  0.02016881     0.03340
C1293       C  0.85169363  0.73586693  0.05260177    -0.10750
H1294       H  0.87337287  0.65098574  0.09627413     0.08930
H1295       H  0.91444463  0.69675922  0.98871264     0.06460
H1296       H  0.83450918  0.76159298  0.05640904     0.06310
O1297       O  0.20924615  0.70501342  0.70868285    -0.88130
C1298       C  0.32479846  0.73134787  0.70154842     0.87900
Mg1299     Mg  0.16487633  0.74872455  0.70371110     1.58150
O1300       O  0.29035643  0.70923465  0.79478511    -0.87860
O1301       O  0.23001717  0.65900556  0.74584644    -0.75190
C1302       C  0.21323819  0.88495088  0.82724617     0.92950
O1303       O  0.24777397  0.77189821  0.65751596    -0.75000
O1304       O  0.19581043  0.88041895  0.79543517    -0.82510
Mg1305     Mg  0.25206920  0.70596539  0.66351741     1.57960
C1306       C  0.32772391  0.78650561  0.88391916     0.92870
O1307       O  0.26107545  0.64085842  0.65826976    -0.80770
H1308       H  0.26683352  0.67357262  0.83324205    -0.06120
C1309       C  0.29750086  0.82499597  0.76935086     0.87810
O1310       O  0.15855055  0.75264406  0.76966167    -0.75280
O1311       O  0.29625859  0.71117736  0.70762721    -0.88050
O1312       O  0.33956593  0.76137107  0.86009079    -0.80860
C1313       C  0.38486510  0.67272849  0.78521100     0.92990
C1314       C  0.28652786  0.61725076  0.66970251     0.92840
Mg1315     Mg  0.24816928  0.79580192  0.83443685     1.57950
O1316       O  0.23812180  0.86095916  0.83930916    -0.80780
O1317       O  0.25255305  0.72973271  0.84047391    -0.75020
O1318       O  0.36125844  0.66126892  0.75967091    -0.80860
O1319       O  0.20436502  0.69759958  0.61888264    -0.82570
O1320       O  0.13928630  0.84037025  0.73745271    -0.80890
C1321       C  0.27007960  0.70277896  0.82316502     0.87280
O1322       O  0.20400376  0.79055356  0.79038313    -0.88030
O1323       O  0.29124715  0.79647978  0.78947983    -0.88140
O1324       O  0.27042834  0.84216093  0.75188575    -0.75190
Mg1325     Mg  0.29593125  0.66571811  0.75004078     1.57970
O1326       O  0.38003554  0.70416734  0.80325264    -0.82570
H1327       H  0.17386375  0.66592637  0.73144203    -0.06290
O1328       O  0.20978319  0.79197377  0.70321523    -0.87840
H1329       H  0.23300040  0.82789557  0.66483051    -0.06120
H1330       H  0.16546328  0.76687357  0.82584568    -0.06290
C1331       C  0.22996455  0.79863864  0.67482120     0.87250
C1332       C  0.20298180  0.67628624  0.72847466     0.87840
C1333       C  0.17564153  0.77021621  0.79668467     0.87890
H1334       H  0.32664748  0.83529478  0.76614944    -0.06270
O1335       O  0.34200801  0.74851963  0.72877855    -0.75300
Mg1336     Mg  0.20440604  0.83576084  0.74751231     1.58000
H1337       H  0.33510950  0.73479245  0.67244770    -0.06290
C1338       C  0.17225165  0.71449982  0.61461701     0.92870
O1339       O  0.11973820  0.79612457  0.69556355    -0.82530
C1340       C  0.11521687  0.82803611  0.71279424     0.92930
O1341       O  0.30437221  0.62184745  0.70130651    -0.82510
Mg1342     Mg  0.33533778  0.75223267  0.79480271     1.58180
O1343       O  0.15993236  0.73914181  0.63867749    -0.80850
O1344       O  0.29609395  0.80425272  0.87920906    -0.82540
C1345       C  0.77927023  0.92122142  0.87265027    -0.21090
C1346       C  0.81798642  0.93184525  0.87436521    -0.09130
C1347       C  0.82847653  0.97064695  0.87620681     0.29720
C1348       C  0.80016952  0.99868767  0.87681714    -0.21090
C1349       C  0.76124985  0.98827062  0.87481678    -0.09150
C1350       C  0.75092055  0.94924902  0.87246153     0.29730
F1351       F  0.71365462  0.93822412  0.86890986    -0.19670
H1352       H  0.77113167  0.89122375  0.87077298     0.18100
H1353       H  0.80865246  0.02853641  0.87918818     0.18100
F1354       F  0.86598013  0.98126652  0.87819724    -0.19660
C1355       C  0.90762622  0.81230725  0.95681760    -0.21090
C1356       C  0.87534816  0.81669553  0.93317931    -0.09130
C1357       C  0.84274999  0.79356826  0.93858565     0.29720
C1358       C  0.84251921  0.76626092  0.96764568    -0.21090
C1359       C  0.87481909  0.76185834  0.99111013    -0.09150
C1360       C  0.90740046  0.78488434  0.98580471     0.29730
F1361       F  0.93861810  0.78097606  0.00886475    -0.19670
H1362       H  0.93271470  0.83036048  0.95298444     0.18100
H1363       H  0.81750519  0.74811584  0.97152192     0.18100
F1364       F  0.81167017  0.79686733  0.91523757    -0.19660
C1365       C  0.97251314  0.87500157  0.82764759    -0.21090
C1366       C  0.93376197  0.87387273  0.81705090    -0.09130
C1367       C  0.92329813  0.87324484  0.77816751     0.29720
C1368       C  0.95160931  0.87351163  0.75007496    -0.21090
C1369       C  0.99051329  0.87490586  0.76052282    -0.09150
C1370       C  0.00086194  0.87584198  0.79957807     0.29730
F1371       F  0.03818792  0.87864817  0.81059377    -0.19670
H1372       H  0.98069598  0.87603935  0.85766459     0.18100
H1373       H  0.94316744  0.87224355  0.72015199     0.18100
F1374       F  0.88579675  0.87172233  0.76747739    -0.19660
C1375       C  0.85031568  0.32077679  0.03738310    -0.21090
C1376       C  0.87582912  0.31831319  0.06864875    -0.09130
C1377       C  0.90045352  0.28614345  0.07063727     0.29720
C1378       C  0.90180675  0.25995385  0.04065459    -0.21090
C1379       C  0.87508444  0.26147142  0.01039291    -0.09150
C1380       C  0.84801811  0.29164197  0.01031398     0.29730
F1381       F  0.81804463  0.29282341  0.98543455    -0.19670
H1382       H  0.83112402  0.34479481  0.03353488     0.18100
H1383       H  0.92374188  0.23809007  0.04219825     0.18100
F1384       F  0.92223740  0.27826159  0.10194591    -0.19660
C1385       C  0.92450348  0.37538440  0.22072529    -0.21090
C1386       C  0.93581076  0.38069476  0.18244817    -0.09130
C1387       C  0.97477143  0.38418211  0.17302924     0.29720
C1388       C  0.00219372  0.38306607  0.20195935    -0.21090
C1389       C  0.99091517  0.37779632  0.24031315    -0.09150
C1390       C  0.95188757  0.37367210  0.24958684     0.29730
F1391       F  0.94038425  0.36687529  0.28624824    -0.19670
H1392       H  0.89445102  0.37172342  0.22808003     0.18100
H1393       H  0.03222745  0.38650612  0.19449072     0.18100
F1394       F  0.98614479  0.38895233  0.13606133    -0.19660
C1395       C  0.74818704  0.45079442  0.13246111    -0.21090
C1396       C  0.75939449  0.48938773  0.12888505    -0.09130
C1397       C  0.79851064  0.49891659  0.12628992     0.29720
C1398       C  0.82596206  0.47010860  0.12778228    -0.21090
C1399       C  0.81471298  0.43161405  0.13129884    -0.09150
C1400       C  0.77570739  0.42192635  0.13329215     0.29730
F1401       F  0.76436030  0.38475595  0.13638151    -0.19670
H1402       H  0.71811780  0.44305266  0.13476652     0.18100
H1403       H  0.85606966  0.47771605  0.12528882     0.18100
F1404       F  0.81011955  0.53580322  0.12107835    -0.19660
C1405       C  0.11415177  0.28319312  0.57339942    -0.21090
C1406       C  0.11820063  0.32150822  0.56164339    -0.09130
C1407       C  0.12289684  0.33021328  0.52267297     0.29720
C1408       C  0.12261254  0.30076307  0.49572787    -0.21090
C1409       C  0.11916694  0.26220642  0.50746010    -0.09150
C1410       C  0.11505856  0.25366405  0.54671822     0.29730
F1411       F  0.11362767  0.21690027  0.55966808    -0.19670
H1412       H  0.11159035  0.27602605  0.60359423     0.18100
H1413       H  0.12516864  0.30821242  0.46563881     0.18100
F1414       F  0.12752064  0.36700672  0.51066727    -0.19660
C1415       C  0.21947063  0.42543543  0.60447764    -0.21090
C1416       C  0.18703419  0.42861944  0.62819341    -0.09130
C1417       C  0.18362820  0.46142435  0.65169945     0.29720
C1418       C  0.21299521  0.48832530  0.65316714    -0.21090
C1419       C  0.24436314  0.48665215  0.62761740    -0.09150
C1420       C  0.24617467  0.45497573  0.60208323     0.29730
F1421       F  0.27184765  0.45266201  0.57289923    -0.19670
H1422       H  0.22398059  0.40073492  0.58626045     0.18100
H1423       H  0.20975981  0.51083832  0.67413740     0.18100
F1424       F  0.15125419  0.46923256  0.67200544    -0.19660
C1425       C  0.02162950  0.33944503  0.72311628    -0.21090
C1426       C  0.01187249  0.37447816  0.74039958    -0.09130
C1427       C  0.03092233  0.40833461  0.72960322     0.29720
C1428       C  0.05917005  0.40700413  0.70154231    -0.21090
C1429       C  0.06890269  0.37198029  0.68411349    -0.09150
C1430       C  0.04996988  0.33807131  0.69513121     0.29730
F1431       F  0.05925355  0.30356376  0.67950621    -0.19670
H1432       H  0.00754629  0.31301991  0.73163214     0.18100
H1433       H  0.07290472  0.43355034  0.69283271     0.18100
F1434       F  0.02147563  0.44279661  0.74526624    -0.19660
C1435       C  0.37398487  0.24889309  0.95027633    -0.21090
C1436       C  0.37536228  0.23850262  0.98921762    -0.09130
C1437       C  0.37744136  0.19946899  0.99954510     0.29720
C1438       C  0.37752411  0.17142605  0.97118779    -0.21090
C1439       C  0.37637297  0.18202269  0.93245221    -0.09150
C1440       C  0.37490061  0.22084012  0.92198194     0.29730
F1441       F  0.37349246  0.23147630  0.88449050    -0.19670
H1442       H  0.37185726  0.27874318  0.94174686     0.18100
H1443       H  0.37913264  0.14142583  0.97935360     0.18100
F1444       F  0.38047434  0.18843468  0.03682995    -0.19660
C1445       C  0.47161536  0.11888690  0.82709131    -0.21090
C1446       C  0.43315553  0.12362677  0.81655252    -0.09130
C1447       C  0.42285969  0.12754607  0.77786578     0.29720
C1448       C  0.45119635  0.12723717  0.74978912    -0.21090
C1449       C  0.48983835  0.12259459  0.76020719    -0.09150
C1450       C  0.49993501  0.11801096  0.79904124     0.29730
F1451       F  0.53695999  0.11189145  0.80973028    -0.19670
H1452       H  0.47952108  0.11530592  0.85698654     0.18100
H1453       H  0.44308360  0.13112924  0.71999812     0.18100
F1454       F  0.38558355  0.13241663  0.76749176    -0.19660
C1455       C  0.25098338  0.04853119  0.87282082    -0.21090
C1456       C  0.26148280  0.00961639  0.87427063    -0.09130
C1457       C  0.30052488  0.99934213  0.87614992     0.29720
C1458       C  0.32851652  0.02777221  0.87616791    -0.21090
C1459       C  0.31780499  0.06649176  0.87503526    -0.09150
C1460       C  0.27897280  0.07689064  0.87357878     0.29730
F1461       F  0.26827233  0.11436400  0.87206703    -0.19670
H1462       H  0.22108861  0.05697184  0.87079438     0.18100
H1463       H  0.35855418  0.01968733  0.87769460     0.18100
F1464       F  0.31158123  0.96205165  0.87904678    -0.19660
C1465       C  0.24993574  0.95043208  0.37507980    -0.21090
C1466       C  0.23945291  0.98931075  0.37659242    -0.09130
C1467       C  0.20037173  0.99959402  0.37838576     0.29720
C1468       C  0.17231272  0.97124307  0.37782035    -0.21090
C1469       C  0.18295386  0.93254725  0.37628134    -0.09150
C1470       C  0.22184188  0.92211438  0.37522039     0.29730
F1471       F  0.23249903  0.88463858  0.37348054    -0.19670
H1472       H  0.27985364  0.94201907  0.37326428     0.18100
H1473       H  0.14228048  0.97937210  0.37923138     0.18100
F1474       F  0.18932716  0.03686879  0.38159256    -0.19660
C1475       C  0.09061808  0.80561813  0.45093385    -0.21090
C1476       C  0.12533536  0.81595312  0.43321486    -0.09130
C1477       C  0.15969610  0.79751518  0.44373210     0.29720
C1478       C  0.15920072  0.76950332  0.47208328    -0.21090
C1479       C  0.12449417  0.75926910  0.48963595    -0.09150
C1480       C  0.09009972  0.77720169  0.47887641     0.29730
F1481       F  0.05631531  0.76788270  0.49605987    -0.19670
H1482       H  0.06398885  0.81990065  0.44346006     0.18100
H1483       H  0.18577908  0.75537107  0.48003972     0.18100
F1484       F  0.19347051  0.80585733  0.42602988    -0.19660
C1485       C  0.04906493  0.87198409  0.25114923    -0.21090
C1486       C  0.01016241  0.87349019  0.26181693    -0.09130
C1487       C  0.00008737  0.87547881  0.30089556     0.29720
C1488       C  0.02868358  0.87562779  0.32872882    -0.21090
C1489       C  0.06739121  0.87456245  0.31783939    -0.09150
C1490       C  0.07758623  0.87291704  0.27897427     0.29730
F1491       F  0.11502255  0.87143478  0.26808078    -0.19670
H1492       H  0.05737935  0.86987081  0.22123233     0.18100
H1493       H  0.02073432  0.87724701  0.35879073     0.18100
F1494       F  0.96283798  0.87846172  0.31213840    -0.19660
C1495       C  0.86954944  0.74991476  0.45172025    -0.21090
C1496       C  0.87697920  0.73958361  0.48991119    -0.09130
C1497       C  0.88412242  0.70104346  0.49953516     0.29720
C1498       C  0.88320874  0.67307531  0.47113099    -0.21090
C1499       C  0.87568295  0.68352447  0.43310891    -0.09150
C1500       C  0.86898640  0.72193746  0.42331047     0.29730
F1501       F  0.86123172  0.73206305  0.38648363    -0.19670
H1502       H  0.86369453  0.77951789  0.44409197     0.18100
H1503       H  0.88881509  0.64337388  0.47859017     0.18100
F1504       F  0.89268949  0.69067161  0.53614557    -0.19660
C1505       C  0.92238774  0.63148486  0.27941540    -0.21090
C1506       C  0.93292411  0.62566072  0.31771189    -0.09130
C1507       C  0.97156183  0.62072489  0.32779864     0.29720
C1508       C  0.99962501  0.62128147  0.29944176    -0.21090
C1509       C  0.98923034  0.62710802  0.26098056    -0.09150
C1510       C  0.95044174  0.63254330  0.25106803     0.29730
F1511       F  0.93984750  0.63971145  0.21422053    -0.19670
H1512       H  0.89253533  0.63584010  0.27168947     0.18100
H1513       H  0.02937983  0.61670719  0.30737738     0.18100
F1514       F  0.98188453  0.61475783  0.36490671    -0.19660
C1515       C  0.82794196  0.52985466  0.38106434    -0.21090
C1516       C  0.81723909  0.56821373  0.37590305    -0.09130
C1517       C  0.77851410  0.57825383  0.37158240     0.29720
C1518       C  0.75055815  0.54978892  0.37196077    -0.21090
C1519       C  0.76113174  0.51125626  0.37704492    -0.09150
C1520       C  0.79999894  0.50139974  0.38198877     0.29730
F1521       F  0.81079872  0.46448958  0.38852520    -0.19670
H1522       H  0.85786487  0.52214164  0.38493750     0.18100
H1523       H  0.72073898  0.55771073  0.36779350     0.18100
F1524       F  0.76799525  0.61541136  0.36626960    -0.19660
C1525       C  0.57610999  0.85716760  0.22216418    -0.21090
C1526       C  0.56820947  0.87288518  0.18607418    -0.09130
C1527       C  0.53209522  0.88841149  0.17780919     0.29720
C1528       C  0.50366510  0.88820410  0.20575338    -0.21090
C1529       C  0.51147905  0.87260937  0.24195096    -0.09150
C1530       C  0.54768261  0.85698952  0.25022183     0.29730
F1531       F  0.55510721  0.84110787  0.28505478    -0.19670
H1532       H  0.60406985  0.84495134  0.22835449     0.18100
H1533       H  0.47573002  0.90040675  0.19940251     0.18100
F1534       F  0.52469649  0.90384113  0.14283113    -0.19660
C1535       C  0.62637314  0.77822811  0.07929106    -0.21090
C1536       C  0.62391821  0.81694888  0.06892067    -0.09130
C1537       C  0.62174825  0.82763821  0.03017956     0.29720
C1538       C  0.62162813  0.79949382  0.00195901    -0.21090
C1539       C  0.62434108  0.76059527  0.01217436    -0.09150
C1540       C  0.62698677  0.75008213  0.05110035     0.29730
F1541       F  0.63126982  0.71282941  0.06184580    -0.19670
H1542       H  0.62863089  0.76993908  0.10921432     0.18100
H1543       H  0.61909411  0.80805103  0.97214809     0.18100
F1544       F  0.61911474  0.86514982  0.01979840    -0.19660
C1545       C  0.67096012  0.97064087  0.12431440    -0.21090
C1546       C  0.68198960  0.93210944  0.12682362    -0.09130
C1547       C  0.72087102  0.92200420  0.12852923     0.29720
C1548       C  0.74866928  0.95051972  0.12842824    -0.21090
C1549       C  0.73788937  0.98926727  0.12571225    -0.09150
C1550       C  0.69877059  0.99922075  0.12329483     0.29730
F1551       F  0.68748468  0.03630192  0.11892284    -0.19670
H1552       H  0.64086218  0.97841432  0.12240016     0.18100
H1553       H  0.77861040  0.94233985  0.13080303     0.18100
F1554       F  0.73177902  0.88465030  0.13093169    -0.19660
C1555       C  0.19981866  0.49768689  0.87809521    -0.21090
C1556       C  0.23842737  0.50874665  0.87427494    -0.09130
C1557       C  0.24804581  0.54780003  0.87062625     0.29720
C1558       C  0.21936821  0.57538755  0.87183062    -0.21090
C1559       C  0.18099083  0.56423433  0.87580314    -0.09150
C1560       C  0.17106993  0.52536114  0.87852094     0.29730
F1561       F  0.13379770  0.51440799  0.88218228    -0.19670
H1562       H  0.19202988  0.46770674  0.88113977     0.18100
H1563       H  0.22694134  0.60546468  0.86901062     0.18100
F1564       F  0.28494942  0.55919529  0.86498025    -0.19660
C1565       C  0.03028448  0.62418888  0.82704094    -0.21090
C1566       C  0.06888790  0.62597936  0.81609791    -0.09130
C1567       C  0.07907555  0.62695277  0.77717262     0.29720
C1568       C  0.05050135  0.62683092  0.74930652    -0.21090
C1569       C  0.01168474  0.62497531  0.76014319    -0.09150
C1570       C  0.00173975  0.62321479  0.79928702     0.29730
F1571       F  0.96461232  0.61940746  0.81070935    -0.19670
H1572       H  0.02238256  0.62260395  0.85712074     0.18100
H1573       H  0.05865128  0.62849970  0.71931671     0.18100
F1574       F  0.11650629  0.62849420  0.76628700    -0.19660
C1575       C  0.15996298  0.72387535  0.97699960    -0.21090
C1576       C  0.12496186  0.73767661  0.99123713    -0.09130
C1577       C  0.09016573  0.72310029  0.97704784     0.29720
C1578       C  0.09054838  0.69470385  0.94904850    -0.21090
C1579       C  0.12556195  0.68106554  0.93436419    -0.09150
C1580       C  0.16040435  0.69599604  0.94847735     0.29730
F1581       F  0.19480761  0.68472281  0.93391309    -0.19670
H1582       H  0.18696148  0.73543445  0.98734515     0.18100
H1583       H  0.06342337  0.68316598  0.93905758     0.18100
F1584       F  0.05590034  0.73587366  0.99068299    -0.19660
C1585       C  0.21904616  0.07575274  0.12734351    -0.21090
C1586       C  0.18080379  0.06439464  0.12266029    -0.09130
C1587       C  0.17114906  0.02545481  0.11989188     0.29720
C1588       C  0.19998514  0.99791933  0.12098631    -0.21090
C1589       C  0.23843112  0.00917301  0.12550165    -0.09150
C1590       C  0.24782323  0.04828010  0.12917504     0.29730
F1591       F  0.28459381  0.05981382  0.13536307    -0.19670
H1592       H  0.22641441  0.10586585  0.13028350     0.18100
H1593       H  0.19240396  0.96789314  0.11787372     0.18100
F1594       F  0.13401442  0.01429446  0.11563336    -0.19660
C1595       C  0.13840769  0.24567454  0.04627203    -0.21090
C1596       C  0.12545178  0.23729023  0.00912070    -0.09130
C1597       C  0.11209591  0.20038170  0.99997840     0.29720
C1598       C  0.11197891  0.17194307  0.02800877    -0.21090
C1599       C  0.12478316  0.18049721  0.06510261    -0.09150
C1600       C  0.13803509  0.21729745  0.07427430     0.29730
F1601       F  0.15078176  0.22543823  0.11016551    -0.19670
H1602       H  0.14885062  0.27412248  0.05341422     0.18100
H1603       H  0.10154844  0.14346046  0.02106807     0.18100
F1604       F  0.09831383  0.19230740  0.96440070    -0.19660
C1605       C  0.04998664  0.12262066  0.24935849    -0.21090
C1606       C  0.01102479  0.12551385  0.23924536    -0.09130
C1607       C  0.00067151  0.12803685  0.20018797     0.29720
C1608       C  0.02890266  0.12819598  0.17207778    -0.21090
C1609       C  0.06760818  0.12496012  0.18229515    -0.09150
C1610       C  0.07815213  0.12190050  0.22106532     0.29730
F1611       F  0.11561756  0.11886641  0.23155560    -0.19670
H1612       H  0.05870852  0.12121488  0.27918227     0.18100
H1613       H  0.02049539  0.12982506  0.14214831     0.18100
F1614       F  0.96333855  0.12898827  0.18890238    -0.19660
C1615       C  0.90973322  0.19724359  0.55241851    -0.21090
C1616       C  0.87465075  0.18416271  0.56745377    -0.09130
C1617       C  0.83993876  0.20046187  0.55469779     0.29720
C1618       C  0.84053658  0.22894856  0.52683796    -0.21090
C1619       C  0.87560086  0.24188078  0.51195967    -0.09150
C1620       C  0.91029536  0.22621424  0.52507183     0.29730
F1621       F  0.94454771  0.23810588  0.51061745    -0.19670
H1622       H  0.93672905  0.18466833  0.56145703     0.18100
H1623       H  0.81365254  0.24127146  0.51710172     0.18100
F1624       F  0.80557680  0.18962685  0.56970292    -0.19660
C1625       C  0.97041771  0.12448905  0.67227779    -0.21090
C1626       C  0.93174582  0.12570194  0.68323830    -0.09130
C1627       C  0.92155681  0.12747397  0.72208757     0.29720
C1628       C  0.95013530  0.12841489  0.74986393    -0.21090
C1629       C  0.98901691  0.12676489  0.73910113    -0.09150
C1630       C  0.99903775  0.12462674  0.70003227     0.29730
F1631       F  0.03625556  0.12144642  0.68872981    -0.19670
H1632       H  0.97831466  0.12274728  0.64220621     0.18100
H1633       H  0.94190258  0.13058461  0.77979964     0.18100
F1634       F  0.88411263  0.12900025  0.73298999    -0.19660
C1635       C  0.82854867  0.02778443  0.62094320    -0.21090
C1636       C  0.81792710  0.06644340  0.62303934    -0.09130
C1637       C  0.77908113  0.07693765  0.62463785     0.29720
C1638       C  0.75095635  0.04867622  0.62465705    -0.21090
C1639       C  0.76139531  0.00982640  0.62255082    -0.09150
C1640       C  0.80044095  0.99948711  0.62029026     0.29730
F1641       F  0.81137277  0.96221764  0.61663630    -0.19670
H1642       H  0.85856856  0.01966817  0.61923562     0.18100
H1643       H  0.72106530  0.05708883  0.62688538     0.18100
F1644       F  0.76852469  0.11441692  0.62706227    -0.19660
C1645       C  0.28093006  0.57834246  0.12596985    -0.21090
C1646       C  0.31951598  0.56719780  0.12480754    -0.09130
C1647       C  0.32952869  0.52827054  0.12378755     0.29720
C1648       C  0.30081768  0.50058844  0.12335444    -0.21090
C1649       C  0.26199124  0.51155257  0.12485485    -0.09150
C1650       C  0.25219880  0.55073010  0.12644559     0.29730
F1651       F  0.21508208  0.56234182  0.12964187    -0.19670
H1652       H  0.27317938  0.60847229  0.12726913     0.18100
H1653       H  0.30891877  0.47059532  0.12160680     0.18100
F1654       F  0.36692639  0.51719236  0.12251965    -0.19660
C1655       C  0.49968974  0.62419039  0.20241647    -0.21090
C1656       C  0.48900647  0.62666500  0.24119408    -0.09130
C1657       C  0.44999272  0.62961193  0.25130206     0.29720
C1658       C  0.42209182  0.62966260  0.22276583    -0.21090
C1659       C  0.43297921  0.62739480  0.18414135    -0.09150
C1660       C  0.47182587  0.62476288  0.17394573     0.29730
F1661       F  0.48260927  0.62181460  0.13656385    -0.19670
H1662       H  0.52960510  0.62140228  0.19423451     0.18100
H1663       H  0.39204783  0.63193814  0.23066018     0.18100
F1664       F  0.43897178  0.63336819  0.28853560    -0.19660
C1665       C  0.41012431  0.72331847  0.02054138    -0.21090
C1666       C  0.37494566  0.73851765  0.00830928    -0.09130
C1667       C  0.34045991  0.72570363  0.02470539     0.29720
C1668       C  0.34133906  0.69826819  0.05360847    -0.21090
C1669       C  0.37652668  0.68288881  0.06595821    -0.09150
C1670       C  0.41101978  0.69539024  0.04900560     0.29730
F1671       F  0.44541067  0.68004274  0.05919319    -0.19670
H1672       H  0.43684374  0.73285793  0.00769117     0.18100
H1673       H  0.31451695  0.68940027  0.06670213     0.18100
F1674       F  0.30612891  0.74053197  0.01357269    -0.19660
C1675       C  0.69959801  0.50025642  0.87768193    -0.21090
C1676       C  0.73833646  0.48913642  0.87539514    -0.09130
C1677       C  0.74792281  0.44997773  0.87273087     0.29720
C1678       C  0.71906557  0.42248797  0.87299762    -0.21090
C1679       C  0.68055743  0.43378515  0.87504606    -0.09150
C1680       C  0.67074856  0.47272123  0.87707497     0.29730
F1681       F  0.63342555  0.48392525  0.87912345    -0.19670
H1682       H  0.69169326  0.53024850  0.88020004     0.18100
H1683       H  0.72664129  0.39236138  0.87086498     0.18100
F1684       F  0.78494904  0.43832125  0.86874056    -0.19660
C1685       C  0.52849441  0.38144209  0.82619520    -0.21090
C1686       C  0.56668251  0.37491777  0.81550291    -0.09130
C1687       C  0.57653227  0.36892923  0.77700158     0.29720
C1688       C  0.54794733  0.36897426  0.74921274    -0.21090
C1689       C  0.50959209  0.37543249  0.75979603    -0.09150
C1690       C  0.49994024  0.38201836  0.79838843     0.29730
F1691       F  0.46320388  0.38990881  0.80893691    -0.19670
H1692       H  0.52102500  0.38658756  0.85598166     0.18100
H1693       H  0.55560958  0.36370836  0.71950263     0.18100
F1694       F  0.61358109  0.36256706  0.76657225    -0.19660
C1695       C  0.58975163  0.27572388  0.97652338    -0.21090
C1696       C  0.62495688  0.26118565  0.98939260    -0.09130
C1697       C  0.65950810  0.27462686  0.97369023     0.29720
C1698       C  0.65868271  0.30213912  0.94486877    -0.21090
C1699       C  0.62346428  0.31710900  0.93206531    -0.09150
C1700       C  0.58887929  0.30382188  0.94826672     0.29730
F1701       F  0.55438050  0.31869292  0.93775331    -0.19670
H1702       H  0.56297795  0.26572091  0.98890421     0.18100
H1703       H  0.68559839  0.31151174  0.93233946     0.18100
F1704       F  0.69388092  0.26053548  0.98562367    -0.19660
C1705       C  0.49860473  0.87586506  0.69989815    -0.21090
C1706       C  0.48800079  0.87411161  0.73877355    -0.09130
C1707       C  0.44888672  0.87203468  0.74889031     0.29720
C1708       C  0.42096050  0.87247040  0.72042067    -0.21090
C1709       C  0.43175064  0.87408896  0.68175926    -0.09150
C1710       C  0.47064440  0.87546250  0.67146712     0.29730
F1711       F  0.48142885  0.87721795  0.63402941    -0.19670
H1712       H  0.52852467  0.87796454  0.69154698     0.18100
H1713       H  0.39090093  0.87086624  0.72842980     0.18100
F1714       F  0.43766695  0.86857399  0.78609144    -0.19660
C1715       C  0.36540228  0.77827985  0.57713524    -0.21090
C1716       C  0.37296547  0.81635977  0.56676890    -0.09130
C1717       C  0.38056838  0.82605614  0.52849431     0.29720
C1718       C  0.38062043  0.79758266  0.50057698    -0.21090
C1719       C  0.37305356  0.75938415  0.51081177    -0.09150
C1720       C  0.36525192  0.74977016  0.54920099     0.29730
F1721       F  0.35679583  0.71308256  0.55941365    -0.19670
H1722       H  0.35930918  0.77084313  0.60674456     0.18100
H1723       H  0.38704968  0.80516559  0.47107544     0.18100
F1724       F  0.38873816  0.86283157  0.51846766    -0.19660
C1725       C  0.27767314  0.92220188  0.62676918    -0.21090
C1726       C  0.31635665  0.93285812  0.62409042    -0.09130
C1727       C  0.32667286  0.97170114  0.62187655     0.29720
C1728       C  0.29826704  0.99973033  0.62197985    -0.21090
C1729       C  0.25943637  0.98920929  0.62473094    -0.09150
C1730       C  0.24924833  0.95021261  0.62741447     0.29730
F1731       F  0.21202357  0.93928179  0.63165108    -0.19670
H1732       H  0.26963186  0.89220470  0.62900113     0.18100
H1733       H  0.30653151  0.02963634  0.61949481     0.18100
F1734       F  0.36408185  0.98234681  0.61885347    -0.19660
C1735       C  0.59164842  0.22038064  0.48011342    -0.21090
C1736       C  0.62533924  0.24102726  0.48734324    -0.09130
C1737       C  0.65919973  0.23283549  0.46718207     0.29720
C1738       C  0.65921174  0.20402046  0.43961859    -0.21090
C1739       C  0.62554307  0.18311233  0.43240238    -0.09150
C1740       C  0.59172319  0.19124357  0.45291887     0.29730
F1741       F  0.55920583  0.17037351  0.44739640    -0.19670
H1742       H  0.56562156  0.22635266  0.49614722     0.18100
H1743       H  0.68532424  0.19821210  0.42367315     0.18100
F1744       F  0.69192755  0.25297941  0.47395175    -0.19660
C1745       C  0.57880930  0.12594973  0.27894493    -0.21090
C1746       C  0.56785727  0.12380202  0.31753028    -0.09130
C1747       C  0.52895001  0.12220193  0.32770087     0.29720
C1748       C  0.50110762  0.12217813  0.29919568    -0.21090
C1749       C  0.51187518  0.12457510  0.26041120    -0.09150
C1750       C  0.55099393  0.12676781  0.25041176     0.29730
F1751       F  0.56229789  0.13084016  0.21329803    -0.19670
H1752       H  0.60888826  0.12783311  0.27106702     0.18100
H1753       H  0.47115001  0.12001715  0.30740166     0.18100
F1754       F  0.51804773  0.12009907  0.36508514    -0.19660
C1755       C  0.70210061  0.00038896  0.37847129    -0.21090
C1756       C  0.74077936  0.01082371  0.37416344    -0.09130
C1757       C  0.75096704  0.04969286  0.37016612     0.29720
C1758       C  0.72259860  0.07775808  0.37089409    -0.21090
C1759       C  0.68404091  0.06715942  0.37504314    -0.09150
C1760       C  0.67376706  0.02842948  0.37875445     0.29730
F1761       F  0.63646706  0.01794426  0.38330264    -0.19670
H1762       H  0.69393695  0.97055670  0.38199952     0.18100
H1763       H  0.73053646  0.10768141  0.36757223     0.18100
F1764       F  0.78809335  0.06036447  0.36460426    -0.19660
C1765       C  0.67225403  0.53083710  0.61922779    -0.21090
C1766       C  0.68303858  0.56923601  0.62392717    -0.09130
C1767       C  0.72181367  0.57929569  0.62784844     0.29720
C1768       C  0.74970595  0.55073132  0.62762585    -0.21090
C1769       C  0.73899823  0.51214266  0.62298711    -0.09150
C1770       C  0.70008056  0.50234310  0.61837477     0.29730
F1771       F  0.68908193  0.46543589  0.61212237    -0.19670
H1772       H  0.64230458  0.52310776  0.61554748     0.18100
H1773       H  0.77957409  0.55863084  0.63148230     0.18100
F1774       F  0.73245658  0.61652994  0.63251179    -0.19660
C1775       C  0.59846497  0.67886078  0.53262429    -0.21090
C1776       C  0.62305190  0.68225111  0.56421672    -0.09130
C1777       C  0.64789052  0.71367355  0.56770544     0.29720
C1778       C  0.64780645  0.74208437  0.53973493    -0.21090
C1779       C  0.62329594  0.73871360  0.50810892    -0.09150
C1780       C  0.59876209  0.70702941  0.50431312     0.29730
F1781       F  0.57528066  0.70355126  0.47337628    -0.19670
H1782       H  0.57943661  0.65436346  0.52988623     0.18100
H1783       H  0.66684514  0.76656525  0.54253638     0.18100
F1784       F  0.67189873  0.71672399  0.59822603    -0.19660
C1785       C  0.52686347  0.62024262  0.66979762    -0.21090
C1786       C  0.56549139  0.62479754  0.67995556    -0.09130
C1787       C  0.57602172  0.62953984  0.71851155     0.29720
C1788       C  0.54787737  0.62986840  0.74675813    -0.21090
C1789       C  0.50912524  0.62506331  0.73677856    -0.09150
C1790       C  0.49869340  0.62005820  0.69810211     0.29730
F1791       F  0.46153426  0.61401428  0.68785472    -0.19670
H1792       H  0.51871170  0.61623723  0.64003044     0.18100
H1793       H  0.55626687  0.63422080  0.77641122     0.18100
F1794       F  0.61337019  0.63459131  0.72863250    -0.19660
C1795       C  0.32797342  0.47214276  0.37848614    -0.21090
C1796       C  0.31704247  0.43354133  0.37615428    -0.09130
C1797       C  0.27815920  0.42340569  0.37383571     0.29720
C1798       C  0.25030067  0.45192620  0.37362422    -0.21090
C1799       C  0.26103827  0.49068712  0.37620594    -0.09150
C1800       C  0.30010101  0.50071167  0.37884869     0.29730
F1801       F  0.31121183  0.53789775  0.38280375    -0.19670
H1802       H  0.35803669  0.47999213  0.38065046     0.18100
H1803       H  0.22035107  0.44379611  0.37110215     0.18100
F1804       F  0.26732529  0.38603055  0.37104457    -0.19660
C1805       C  0.34018825  0.27133881  0.47416208    -0.21090
C1806       C  0.37519392  0.25974375  0.49022523    -0.09130
C1807       C  0.40970315  0.27662176  0.47806380     0.29720
C1808       C  0.40900913  0.30521043  0.45026393    -0.21090
C1809       C  0.37400065  0.31678584  0.43392698    -0.09150
C1810       C  0.33949542  0.29948796  0.44591427     0.29730
F1811       F  0.30532024  0.30890279  0.42962160    -0.19670
H1812       H  0.31346977  0.25805378  0.48308578     0.18100
H1813       H  0.43581317  0.31857577  0.44175303     0.18100
F1814       F  0.44386953  0.26606472  0.49366755    -0.19660
C1815       C  0.49784931  0.37838357  0.29920690    -0.21090
C1816       C  0.48750273  0.37403274  0.26050434    -0.09130
C1817       C  0.44863530  0.36943860  0.25038803     0.29720
C1818       C  0.42055922  0.36984742  0.27876963    -0.21090
C1819       C  0.43113549  0.37404786  0.31728344    -0.09150
C1820       C  0.46981583  0.37809165  0.32754925     0.29730
F1821       F  0.48024128  0.38251239  0.36485925    -0.19670
H1822       H  0.52760758  0.38239435  0.30742664     0.18100
H1823       H  0.39064409  0.36631433  0.27087416     0.18100
F1824       F  0.43793688  0.36362648  0.21333487    -0.19660
loop_ 
_geom_bond_atom_site_label_1 
_geom_bond_atom_site_label_2 
_geom_bond_distance 
_geom_bond_site_symmetry_2 
_ccdc_geom_bond_type 
O1           Mg3   2.181       .  S
O1           Mg9   2.169       .  S
O1           C36   1.235       .  S
C2           O15   1.234       .  S
C2           O39   1.270       .  A
C2           H41   1.080       .  S
Mg3          O32   2.169       .  S
Mg3          O47   2.299       .  S
Mg3          O43   2.303       .  S
Mg3          O14   2.310       .  S
O4          Mg46   2.167       .  S
O4          Mg29   2.177       .  S
O4           C25   1.234       .  S
O5           C36   1.271       .  A
O5          Mg29   2.312       .  S
C6            O8   1.273       .  A
C6           O20   1.274       .  A
C6         C1021   1.478       .  S
O7           C35   1.270       .  A
O7           Mg9   2.310       .  S
O8          Mg40   2.301       .  S
Mg9          O15   2.177       .  S
Mg9          O23   2.298       .  S
Mg9          O11   2.299       .  S
C10          O48   1.273       .  A
C10          O16   1.274       .  A
C10         C459   1.477       .  S
O11          C18   1.274       .  A
H12          C25   1.081       .  S
C13          O27   1.234       .  S
C13          O28   1.270       .  A
C13          H38   1.080       .  S
O14          C37   1.270       .  A
O15         Mg29   2.164       .  S
O16         Mg46   2.298       .  S
C17          O30   1.273       .  A
C17          O22   1.274       .  A
C17         C297   1.477       .  S
C18          O45   1.272       .  A
C18         C624   1.477       .  S
Mg19         O26   2.178       .  S
Mg19         O27   2.166       .  S
Mg19         O20   2.302       .  S
Mg19         O21   2.312       .  S
Mg19         O48   2.300       .  S
O21          C25   1.271       .  A
O22         Mg29   2.298       .  S
O23          C42   1.273       .  A
O24          C44   1.274       .  A
O24         Mg40   2.299       .  S
O26         Mg40   2.167       .  S
O26          C37   1.234       .  S
O27         Mg46   2.180       .  S
O28         Mg40   2.310       .  S
Mg29         O45   2.297       .  S
O30         Mg46   2.302       .  S
H31          C36   1.081       .  S
O32         Mg40   2.178       .  S
O32          C35   1.234       .  S
H33          C35   1.081       .  S
H34          C37   1.080       .  S
O39         Mg46   2.311       .  S
C42          O47   1.274       .  A
C42        C1252   1.477       .  S
O43          C44   1.273       .  A
C44        C1288   1.478       .  S
O49         Mg51   2.170       .  S
O49         Mg57   2.185       .  S
O49          C84   1.233       .  S
C50          O63   1.233       .  S
C50          O87   1.268       .  A
C50          H89   1.081       .  S
Mg51         O80   2.188       .  S
Mg51         O95   2.307       .  S
Mg51         O91   2.269       .  S
Mg51         O62   2.295       .  S
O52         Mg94   2.183       .  S
O52         Mg77   2.173       .  S
O52          C73   1.233       .  S
O53          C84   1.267       .  A
O53         Mg77   2.296       .  S
C54          O56   1.278       .  A
C54          O68   1.275       .  A
C54        C1279   1.486       .  S
O55          C83   1.267       .  A
O55         Mg57   2.298       .  S
O56         Mg88   2.290       .  S
Mg57         O63   2.171       .  S
Mg57         O71   2.281       .  S
Mg57         O59   2.309       .  S
C58          O96   1.277       .  A
C58          O64   1.275       .  A
C58        C1086   1.482       .  S
O59          C66   1.274       .  A
H60          C73   1.080       .  S
C61          O75   1.232       .  S
C61          O76   1.267       .  A
C61          H86   1.081       .  S
O62          C85   1.267       .  A
O63         Mg77   2.185       .  S
O64         Mg94   2.314       .  S
C65          O78   1.276       .  A
C65          O70   1.274       .  A
C65         C488   1.481       .  S
C66          O93   1.276       .  A
C66         C306   1.483       .  S
Mg67         O74   2.173       .  S
Mg67         O75   2.184       .  S
Mg67         O68   2.317       .  S
Mg67         O69   2.294       .  S
Mg67         O96   2.280       .  S
O69          C73   1.267       .  A
O70         Mg77   2.308       .  S
O71          C90   1.276       .  A
O72          C92   1.276       .  A
O72         Mg88   2.319       .  S
O74         Mg88   2.186       .  S
O74          C85   1.233       .  S
O75         Mg94   2.172       .  S
O76         Mg88   2.295       .  S
Mg77         O93   2.284       .  S
O78         Mg94   2.282       .  S
H79          C84   1.081       .  S
O80         Mg88   2.178       .  S
O80          C83   1.233       .  S
H81          C83   1.081       .  S
H82          C85   1.081       .  S
O87         Mg94   2.295       .  S
C90          O95   1.273       .  A
C90        C1143   1.483       .  S
O91          C92   1.275       .  A
C92        C1236   1.485       .  S
O97         Mg99   2.170       .  S
O97        Mg105   2.180       .  S
O97         C132   1.231       .  S
C98         O111   1.233       .  S
C98         O135   1.267       .  A
C98         H137   1.081       .  S
Mg99        O128   2.184       .  S
Mg99        O143   2.312       .  S
Mg99        O139   2.278       .  S
Mg99        O110   2.294       .  S
O100       Mg142   2.185       .  S
O100       Mg125   2.171       .  S
O100        C121   1.233       .  S
O101        C132   1.267       .  A
O101       Mg125   2.295       .  S
C102        O104   1.276       .  A
C102        O116   1.275       .  A
C102        C967   1.482       .  S
O103        C131   1.268       .  A
O103       Mg105   2.296       .  S
O104       Mg136   2.278       .  S
Mg105       O111   2.171       .  S
Mg105       O119   2.280       .  S
Mg105       O107   2.318       .  S
C106        O144   1.277       .  A
C106        O112   1.275       .  A
C106        C608   1.484       .  S
O107        C114   1.275       .  A
H108        C121   1.081       .  S
C109        O123   1.233       .  S
C109        O124   1.268       .  A
C109        H134   1.081       .  S
O110        C133   1.267       .  A
O111       Mg125   2.186       .  S
O112       Mg142   2.318       .  S
C113        O126   1.277       .  A
C113        O118   1.274       .  A
C113        C883   1.482       .  S
C114        O141   1.276       .  A
C114       C1003   1.483       .  S
Mg115       O122   2.173       .  S
Mg115       O123   2.184       .  S
Mg115       O116   2.315       .  S
Mg115       O117   2.295       .  S
Mg115       O144   2.281       .  S
O117        C121   1.267       .  A
O118       Mg125   2.311       .  S
O119        C138   1.277       .  A
O120        C140   1.276       .  A
O120       Mg136   2.321       .  S
O122       Mg136   2.184       .  S
O122        C133   1.233       .  S
O123       Mg142   2.175       .  S
O124       Mg136   2.298       .  S
Mg125       O141   2.276       .  S
O126       Mg142   2.282       .  S
H127        C132   1.079       .  S
O128       Mg136   2.171       .  S
O128        C131   1.233       .  S
H129        C131   1.081       .  S
H130        C133   1.081       .  S
O135       Mg142   2.295       .  S
C138        O143   1.274       .  A
C138        C717   1.483       .  S
O139        C140   1.276       .  A
C140        C511   1.484       .  S
C145        C318   1.485       .  S
C145        C146   1.422       .  A
C145        C150   1.394       .  A
C146        H151   1.083       .  S
C146        C147   1.422       .  A
C147        C833   1.485       .  S
C147        C148   1.394       .  A
C148        H152   1.085       .  S
C148        C149   1.395       .  A
C149       C1816   1.463       .  S
C149        C150   1.395       .  A
C150        H153   1.084       .  S
C154        C812   1.479       .  S
C154        C155   1.392       .  A
C154        C159   1.419       .  A
C155        H160   1.085       .  S
C155        C156   1.397       .  A
C156       C1806   1.458       .  S
C156        C157   1.397       .  A
C157        H161   1.085       .  S
C157        C158   1.392       .  A
C158        C238   1.478       .  S
C158        C159   1.420       .  A
C159        H162   1.083       .  S
C163       C1819   1.452       .  S
C163        C164   1.394       .  A
C163        C168   1.393       .  A
C164        H169   1.084       .  S
C164        C165   1.398       .  A
C165       C1809   1.465       .  S
C165        C166   1.398       .  A
C166        H170   1.084       .  S
C166        C167   1.395       .  A
C167       C1796   1.453       .  S
C167        C168   1.393       .  A
C168        H171   1.085       .  S
C172        C190   1.479       .  S
C172        C173   1.392       .  A
C172        C177   1.419       .  A
C173        H178   1.085       .  S
C173        C174   1.399       .  A
C174       C1799   1.463       .  S
C174        C175   1.398       .  A
C175        H179   1.084       .  S
C175        C176   1.392       .  A
C176        C944   1.478       .  S
C176        C177   1.419       .  A
C177        H180   1.083       .  S
O181       Mg183   2.177       .  S
O181       Mg189   2.168       .  S
O181        C216   1.234       .  S
C182        O195   1.234       .  S
C182        O219   1.270       .  A
C182        H221   1.081       .  S
Mg183       O212   2.167       .  S
Mg183       O227   2.300       .  S
Mg183       O223   2.300       .  S
Mg183       O194   2.312   1_655  S
O184       Mg226   2.165       .  S
O184       Mg209   2.179       .  S
O184        C205   1.234       .  S
O185        C216   1.270       .  A
O185       Mg209   2.311   1_655  S
C186        O188   1.272       .  A
C186        O200   1.273       .  A
C186       C1050   1.476       .  S
O187        C215   1.270       .  A
O187       Mg189   2.310       .  S
O188       Mg220   2.296   1_455  S
Mg189       O195   2.181       .  S
Mg189       O203   2.301       .  S
Mg189       O191   2.294       .  S
C190        O228   1.273       .  A
C190        O196   1.274       .  A
O191        C198   1.273       .  A
H192        C205   1.080       .  S
C193        O207   1.234       .  S
C193        O208   1.271       .  A
C193        H218   1.080       .  S
O194        C217   1.271       .  A
O195       Mg209   2.168   1_655  S
O196       Mg226   2.301       .  S
C197        O210   1.273       .  A
C197        O202   1.274       .  A
C197       C1243   1.477       .  S
C198        O225   1.273       .  A
C198        C726   1.476       .  S
Mg199       O206   2.181       .  S
Mg199       O207   2.165       .  S
Mg199       O200   2.297       .  S
Mg199       O201   2.312       .  S
Mg199       O228   2.302       .  S
O201        C205   1.270       .  A
O202       Mg209   2.299       .  S
O203        C222   1.273       .  A
O204        C224   1.274       .  A
O204       Mg220   2.301       .  S
O206       Mg220   2.168   1_455  S
O206        C217   1.234       .  S
O207       Mg226   2.179       .  S
O208       Mg220   2.312   1_455  S
Mg209       O225   2.298   1_455  S
O210       Mg226   2.300       .  S
H211        C216   1.081       .  S
O212       Mg220   2.176       .  S
O212        C215   1.234       .  S
H213        C215   1.081       .  S
H214        C217   1.081       .  S
O219       Mg226   2.313   1_655  S
C222        O227   1.274       .  A
C222        C304   1.478       .  S
O223        C224   1.273       .  A
C224        C885   1.478       .  S
O229       Mg231   2.179       .  S
O229       Mg237   2.165       .  S
O229        C264   1.234       .  S
C230        O243   1.233       .  S
C230        O267   1.270       .  A
C230        H269   1.080       .  S
Mg231       O260   2.167       .  S
Mg231       O275   2.299       .  S
Mg231       O271   2.301       .  S
Mg231       O242   2.311   1_565  S
O232       Mg274   2.168       .  S
O232       Mg257   2.180       .  S
O232        C253   1.234       .  S
O233        C264   1.271       .  A
O233       Mg257   2.311   1_565  S
C234        O236   1.272       .  A
C234        O248   1.274       .  A
C234       C1084   1.477       .  S
O235        C263   1.270       .  A
O235       Mg237   2.310       .  S
O236       Mg268   2.297   1_545  S
Mg237       O243   2.179       .  S
Mg237       O251   2.299       .  S
Mg237       O239   2.298       .  S
C238        O276   1.273       .  A
C238        O244   1.274       .  A
O239        C246   1.274       .  A
H240        C253   1.080       .  S
C241        O255   1.234       .  S
C241        O256   1.271       .  A
C241        H266   1.080       .  S
O242        C265   1.270       .  A
O243       Mg257   2.165   1_565  S
O244       Mg274   2.301       .  S
C245        O258   1.273       .  A
C245        O250   1.274       .  A
C245       C1041   1.478       .  S
C246        O273   1.273       .  A
C246        C978   1.478       .  S
Mg247       O254   2.181       .  S
Mg247       O255   2.166       .  S
Mg247       O248   2.301       .  S
Mg247       O249   2.312       .  S
Mg247       O276   2.302       .  S
O249        C253   1.271       .  A
O250       Mg257   2.301       .  S
O251        C270   1.273       .  A
O252        C272   1.274       .  A
O252       Mg268   2.303       .  S
O254       Mg268   2.169   1_545  S
O254        C265   1.234       .  S
O255       Mg274   2.181       .  S
O256       Mg268   2.312   1_545  S
Mg257       O273   2.303   1_545  S
O258       Mg274   2.301       .  S
H259        C264   1.080       .  S
O260       Mg268   2.177       .  S
O260        C263   1.234       .  S
H261        C263   1.080       .  S
H262        C265   1.081       .  S
O267       Mg274   2.310   1_565  S
C270        O275   1.274       .  A
C270        C295   1.477       .  S
O271        C272   1.273       .  A
C272        C715   1.479       .  S
C277       C1786   1.454       .  S
C277        C278   1.395       .  A
C277        C282   1.395       .  A
C278        H283   1.084       .  S
C278        C279   1.393       .  A
C279       C1776   1.447       .  S
C279        C280   1.393       .  A
C280        H284   1.085       .  S
C280        C281   1.393       .  A
C281       C1766   1.451       .  S
C281        C282   1.394       .  A
C282        H285   1.085       .  S
C286       C1313   1.479       .  S
C286        C287   1.392       .  A
C286        C291   1.421       .  A
C287        H292   1.085       .  S
C287        C288   1.396       .  A
C288       C1789   1.462       .  S
C288        C289   1.397       .  A
C289        H293   1.085       .  S
C289        C290   1.394       .  A
C290        C330   1.485       .  S
C290        C291   1.421       .  A
C291        H294   1.083       .  S
C295        C296   1.420       .  A
C295        C300   1.392       .  A
C296        H301   1.083       .  S
C296        C297   1.419       .  A
C297        C298   1.392       .  A
C298        H302   1.085       .  S
C298        C299   1.393       .  A
C299       C1779   1.448       .  S
C299        C300   1.394       .  A
C300        H303   1.085       .  S
C304        C305   1.420       .  A
C304        C309   1.392       .  A
C305        H310   1.083       .  S
C305        C306   1.420       .  A
C306        C307   1.392       .  A
C307        H311   1.084       .  S
C307        C308   1.397       .  A
C308       C1769   1.462       .  S
C308        C309   1.397       .  A
C309        H312   1.085       .  S
O313       Mg315   2.173       .  S
O313       Mg321   2.186       .  S
O313        C348   1.233       .  S
C314        O327   1.233       .  S
C314        O351   1.267   1_556  A
C314        H353   1.081       .  S
Mg315       O344   2.185   1_556  S
Mg315       O359   2.313       .  S
Mg315       O355   2.280       .  S
Mg315       O326   2.295       .  S
O316       Mg358   2.185   1_556  S
O316       Mg341   2.177       .  S
O316        C337   1.233       .  S
O317        C348   1.267       .  A
O317       Mg341   2.295       .  S
C318        O320   1.277       .  A
C318        O332   1.275       .  A
O319        C347   1.268       .  A
O319       Mg321   2.297   1_554  S
O320       Mg352   2.281       .  S
Mg321       O327   2.171       .  S
Mg321       O335   2.281       .  S
Mg321       O323   2.321       .  S
C322        O360   1.276       .  A
C322        O328   1.275       .  A
C322       C1254   1.482       .  S
O323        C330   1.276       .  A
H324        C337   1.081       .  S
C325        O339   1.233       .  S
C325        O340   1.267       .  A
C325        H350   1.081       .  S
O326        C349   1.267   1_556  A
O327       Mg341   2.186       .  S
O328       Mg358   2.315       .  S
C329        O342   1.276   1_556  A
C329        O334   1.274       .  A
C329        C969   1.481       .  S
C330        O357   1.277       .  A
Mg331       O338   2.170       .  S
Mg331       O339   2.184       .  S
Mg331       O332   2.322       .  S
Mg331       O333   2.297   1_554  S
Mg331       O360   2.277       .  S
O333        C337   1.268       .  A
O334       Mg341   2.313       .  S
O335        C354   1.277       .  A
O336        C356   1.274       .  A
O336       Mg352   2.311       .  S
O338       Mg352   2.185       .  S
O338        C349   1.233       .  S
O339       Mg358   2.171       .  S
O340       Mg352   2.294       .  S
Mg341       O357   2.285       .  S
O342       Mg358   2.276       .  S
H343        C348   1.081       .  S
O344       Mg352   2.175       .  S
O344        C347   1.233       .  S
H345        C347   1.081       .  S
H346        C349   1.081       .  S
O351       Mg358   2.295       .  S
C354        O359   1.275       .  A
C354        C894   1.482       .  S
O355        C356   1.276   1_556  A
C356       C1075   1.482       .  S
O361       Mg363   2.177       .  S
O361       Mg369   2.165       .  S
O361        C396   1.233       .  S
C362        O375   1.234       .  S
C362        O399   1.269       .  A
C362        H401   1.081       .  S
Mg363       O392   2.167       .  S
Mg363       O407   2.298       .  S
Mg363       O403   2.299       .  S
Mg363       O374   2.315       .  S
O364       Mg406   2.167       .  S
O364       Mg389   2.174       .  S
O364        C385   1.234       .  S
O365        C396   1.269       .  A
O365       Mg389   2.308       .  S
C366        O368   1.272       .  A
C366        O380   1.275       .  A
C366        C524   1.480       .  S
O367        C395   1.271       .  A
O367       Mg369   2.313       .  S
O368       Mg400   2.303       .  S
Mg369       O375   2.173       .  S
Mg369       O383   2.296       .  S
Mg369       O371   2.300       .  S
C370        O408   1.272       .  A
C370        O376   1.272       .  A
C370       C1172   1.476       .  S
O371        C378   1.274       .  A
H372        C385   1.081       .  S
C373        O387   1.234       .  S
C373        O388   1.271       .  A
C373        H398   1.081       .  S
O374        C397   1.271       .  A
O375       Mg389   2.171       .  S
O376       Mg406   2.283       .  S
C377        O390   1.272       .  A
C377        O382   1.273       .  A
C377        C595   1.477       .  S
C378        O405   1.273       .  A
C378        C484   1.476       .  S
Mg379       O386   2.180       .  S
Mg379       O387   2.161       .  S
Mg379       O380   2.305       .  S
Mg379       O381   2.314       .  S
Mg379       O408   2.300       .  S
O381        C385   1.271       .  A
O382       Mg389   2.297       .  S
O383        C402   1.272       .  A
O384        C404   1.274       .  A
O384       Mg400   2.298       .  S
O386       Mg400   2.163       .  S
O386        C397   1.234       .  S
O387       Mg406   2.183       .  S
O388       Mg400   2.317       .  S
Mg389       O405   2.295       .  S
O390       Mg406   2.297       .  S
H391        C396   1.080       .  S
O392       Mg400   2.181       .  S
O392        C395   1.235       .  S
H393        C395   1.081       .  S
H394        C397   1.081       .  S
O399       Mg406   2.306       .  S
C402        O407   1.274       .  A
C402       C1012   1.476       .  S
O403        C404   1.272       .  A
C404        C622   1.477       .  S
O409       Mg411   2.173       .  S
O409       Mg417   2.184   1_554  S
O409        C444   1.233       .  S
C410        O423   1.233       .  S
C410        O447   1.267   1_455  A
C410        H449   1.081       .  S
Mg411       O440   2.186   1_455  S
Mg411       O455   2.317       .  S
Mg411       O451   2.284       .  S
Mg411       O422   2.296   1_565  S
O412       Mg454   2.186   1_455  S
O412       Mg437   2.175       .  S
O412        C433   1.233       .  S
O413        C444   1.267   1_545  A
O413       Mg437   2.294   1_554  S
C414        O416   1.277   1_545  A
C414        O428   1.273       .  A
C414        C949   1.484       .  S
O415        C443   1.268   1_556  A
O415       Mg417   2.296   1_655  S
O416       Mg448   2.286       .  S
Mg417       O423   2.171       .  S
Mg417       O431   2.280       .  S
Mg417       O419   2.314       .  S
C418        O456   1.275   1_556  A
C418        O424   1.276       .  A
C418       C1234   1.485       .  S
O419        C426   1.275       .  A
H420        C433   1.081       .  S
C421        O435   1.233       .  S
C421        O436   1.267   1_545  A
C421        H446   1.081       .  S
O422        C445   1.267   1_455  A
O423       Mg437   2.185   1_565  S
O424       Mg454   2.321       .  S
C425        O438   1.278   1_455  A
C425        O430   1.275       .  A
C425        C706   1.484       .  S
C426        O453   1.277   1_565  A
C426       C1057   1.483       .  S
Mg427       O434   2.171       .  S
Mg427       O435   2.187   1_554  S
Mg427       O428   2.310       .  S
Mg427       O429   2.296   1_655  S
Mg427       O456   2.270       .  S
O429        C433   1.267   1_554  A
O430       Mg437   2.314       .  S
O431        C450   1.276   1_556  A
O432        C452   1.275       .  A
O432       Mg448   2.313       .  S
O434       Mg448   2.184   1_545  S
O434        C445   1.233       .  S
O435       Mg454   2.176       .  S
O436       Mg448   2.297   1_556  S
Mg437       O453   2.285       .  S
O438       Mg454   2.287       .  S
H439        C444   1.080       .  S
O440       Mg448   2.175       .  S
O440        C443   1.233       .  S
H441        C443   1.081       .  S
H442        C445   1.081       .  S
O447       Mg454   2.296   1_565  S
C450        O455   1.275       .  A
C450        C867   1.483       .  S
O451        C452   1.277   1_455  A
C452       C1023   1.483       .  S
C457       C1102   1.476       .  S
C457        C458   1.418       .  A
C457        C462   1.391       .  A
C458        H463   1.083       .  S
C458        C459   1.418       .  A
C459        C460   1.392       .  A
C460        H464   1.085       .  S
C460        C461   1.398       .  A
C461       C1756   1.461   1_565  S
C461        C462   1.397       .  A
C462        H465   1.085   1_565  S
C466       C1739   1.458       .  S
C466        C467   1.397       .  A
C466        C471   1.395       .  A
C467        H472   1.084       .  S
C467        C468   1.395       .  A
C468       C1759   1.453       .  S
C468        C469   1.394       .  A
C469        H473   1.085       .  S
C469        C470   1.393       .  A
C470       C1746   1.452       .  S
C470        C471   1.393       .  A
C471        H474   1.084       .  S
C475        C534   1.481       .  S
C475        C476   1.421       .  A
C475        C480   1.393       .  A
C476        H481   1.083       .  S
C476        C477   1.421       .  A
C477       C1193   1.482       .  S
C477        C478   1.394       .  A
C478        H482   1.085       .  S
C478        C479   1.396       .  A
C479       C1749   1.464       .  S
C479        C480   1.395       .  A
C480        H483   1.084       .  S
C484        C485   1.392       .  A
C484        C489   1.420       .  A
C485        H490   1.085       .  S
C485        C486   1.393       .  A
C486       C1736   1.450       .  S
C486        C487   1.393       .  A
C487        H491   1.085       .  S
C487        C488   1.393       .  A
C488        C489   1.420       .  A
C489        H492   1.083       .  S
C493        C810   1.480       .  S
C493        C494   1.393       .  A
C493        C498   1.419       .  A
C494        H499   1.085       .  S
C494        C495   1.399       .  A
C495       C1729   1.464   1_545  S
C495        C496   1.399       .  A
C496        H500   1.084   1_545  S
C496        C497   1.392       .  A
C497       C1134   1.479       .  S
C497        C498   1.419       .  A
C498        H501   1.083       .  S
C502       C1716   1.451       .  S
C502        C503   1.394       .  A
C502        C507   1.393       .  A
C503        H508   1.085       .  S
C503        C504   1.395       .  A
C504       C1726   1.455       .  S
C504        C505   1.395       .  A
C505        H509   1.085       .  S
C505        C506   1.395       .  A
C506       C1709   1.454       .  S
C506        C507   1.394       .  A
C507        H510   1.085       .  S
C511        C512   1.395       .  A
C511        C516   1.421       .  A
C512        H517   1.084       .  S
C512        C513   1.397       .  A
C513       C1706   1.467       .  S
C513        C514   1.396       .  A
C514        H518   1.084       .  S
C514        C515   1.393       .  A
C515        C546   1.483       .  S
C515        C516   1.421       .  A
C516        H519   1.083       .  S
C520        C906   1.479       .  S
C520        C521   1.392       .  A
C520        C525   1.420       .  A
C521        H526   1.085       .  S
C521        C522   1.397       .  A
C522       C1719   1.458       .  S
C522        C523   1.397       .  A
C523        H527   1.085       .  S
C523        C524   1.392       .  A
C524        C525   1.420       .  A
C525        H528   1.083       .  S
O529       Mg531   2.173       .  S
O529       Mg537   2.184   1_545  S
O529        C564   1.233       .  S
C530        O543   1.233       .  S
C530        O567   1.267   1_556  A
C530        H569   1.081       .  S
Mg531       O560   2.185   1_556  S
Mg531       O575   2.316       .  S
Mg531       O571   2.279       .  S
Mg531       O542   2.296       .  S
O532       Mg574   2.185   1_556  S
O532       Mg557   2.171       .  S
O532        C553   1.233       .  S
O533        C564   1.268       .  A
O533       Mg557   2.297   1_545  S
C534        O536   1.276       .  A
C534        O548   1.275       .  A
O535        C563   1.267   1_565  A
O535       Mg537   2.296   1_554  S
O536       Mg568   2.274       .  S
Mg537       O543   2.174       .  S
Mg537       O551   2.283       .  S
Mg537       O539   2.316       .  S
C538        O576   1.277   1_565  A
C538        O544   1.274       .  A
C538        C760   1.483       .  S
O539        C546   1.275       .  A
H540        C553   1.081       .  S
C541        O555   1.231       .  S
C541        O556   1.267       .  A
C541        H566   1.078       .  S
O542        C565   1.267   1_556  A
O543       Mg557   2.185       .  S
O544       Mg574   2.310       .  S
C545        O558   1.276   1_556  A
C545        O550   1.275       .  A
C545        C615   1.484       .  S
C546        O573   1.276       .  A
Mg547       O554   2.175       .  S
Mg547       O555   2.180   1_545  S
Mg547       O548   2.316       .  S
Mg547       O549   2.296   1_554  S
Mg547       O576   2.283       .  S
O549        C553   1.268   1_545  A
O550       Mg557   2.318       .  S
O551        C570   1.277   1_565  A
O552        C572   1.275       .  A
O552       Mg568   2.316       .  S
O554       Mg568   2.188       .  S
O554        C565   1.233       .  S
O555       Mg574   2.171       .  S
O556       Mg568   2.295   1_565  S
Mg557       O573   2.278       .  S
O558       Mg574   2.281       .  S
H559        C564   1.081       .  S
O560       Mg568   2.172       .  S
O560        C563   1.233       .  S
H561        C563   1.081       .  S
H562        C565   1.081       .  S
O567       Mg574   2.294       .  S
C570        O575   1.274       .  A
C570       C1281   1.484       .  S
O571        C572   1.276   1_556  A
C572        C579   1.484       .  S
C577        C834   1.484       .  S
C577        C578   1.423       .  A
C577        C582   1.395       .  A
C578        H583   1.083       .  S
C578        C579   1.423       .  A
C579        C580   1.393       .  A
C580        H584   1.085   1_554  S
C580        C581   1.392       .  A
C581       C1696   1.456   1_554  S
C581        C582   1.393       .  A
C582        H585   1.085       .  S
C586       C1686   1.448       .  S
C586        C587   1.393       .  A
C586        C591   1.391       .  A
C587        H592   1.084       .  S
C587        C588   1.398       .  A
C588       C1699   1.466       .  S
C588        C589   1.398       .  A
C589        H593   1.084       .  S
C589        C590   1.394       .  A
C590       C1679   1.451       .  S
C590        C591   1.392       .  A
C591        H594   1.085       .  S
C595        C596   1.390       .  A
C595        C600   1.420       .  A
C596        H601   1.085       .  S
C596        C597   1.395       .  A
C597       C1689   1.457       .  S
C597        C598   1.397       .  A
C598        H602   1.085       .  S
C598        C599   1.392       .  A
C599        C774   1.480       .  S
C599        C600   1.420       .  A
C600        H603   1.083       .  S
C604        C658   1.484       .  S
C604        C605   1.393       .  A
C604        C609   1.422       .  A
C605        H610   1.084       .  S
C605        C606   1.396       .  A
C606       C1676   1.465       .  S
C606        C607   1.396       .  A
C607        H611   1.084       .  S
C607        C608   1.393       .  A
C608        C609   1.422       .  A
C609        H612   1.083       .  S
C613       C1306   1.478       .  S
C613        C614   1.421       .  A
C613        C618   1.392       .  A
C614        H619   1.083       .  S
C614        C615   1.421       .  A
C615        C616   1.394       .  A
C616        H620   1.085   1_556  S
C616        C617   1.395       .  A
C617       C1666   1.457   1_556  S
C617        C618   1.395       .  A
C618        H621   1.085       .  S
C622        C623   1.418       .  A
C622        C627   1.392       .  A
C623        H628   1.083       .  S
C623        C624   1.418       .  A
C624        C625   1.391       .  A
C625        H629   1.085       .  S
C625        C626   1.398       .  A
C626       C1656   1.462       .  S
C626        C627   1.398       .  A
C627        H630   1.084       .  S
C631       C1669   1.465       .  S
C631        C632   1.398       .  A
C631        C636   1.397       .  A
C632        H637   1.084       .  S
C632        C633   1.395       .  A
C633       C1659   1.452       .  S
C633        C634   1.393       .  A
C634        H638   1.085       .  S
C634        C635   1.392       .  A
C635       C1646   1.452       .  S
C635        C636   1.393       .  A
C636        H639   1.084       .  S
C640       C1218   1.484       .  S
C640        C641   1.393       .  A
C640        C645   1.422       .  A
C641        H646   1.084       .  S
C641        C642   1.396       .  A
C642       C1649   1.465       .  S
C642        C643   1.396       .  A
C643        H647   1.084       .  S
C643        C644   1.393       .  A
C644        C690   1.484       .  S
C644        C645   1.422       .  A
C645        H648   1.083       .  S
O649       Mg651   2.176       .  S
O649       Mg657   2.183       .  S
O649        C684   1.232       .  S
C650        O663   1.233       .  S
C650        O687   1.267   1_554  A
C650        H689   1.081       .  S
Mg651       O680   2.184   1_554  S
Mg651       O695   2.314       .  S
Mg651       O691   2.286       .  S
Mg651       O662   2.297   1_455  S
O652       Mg694   2.185   1_554  S
O652       Mg677   2.171       .  S
O652        C673   1.233       .  S
O653        C684   1.267   1_655  A
O653       Mg677   2.295       .  S
C654        O656   1.277   1_655  A
C654        O668   1.275       .  A
C654       C1141   1.485       .  S
O655        C683   1.267       .  A
O655       Mg657   2.295   1_556  S
O656       Mg688   2.279       .  S
Mg657       O663   2.175       .  S
Mg657       O671   2.283       .  S
Mg657       O659   2.317       .  S
C658        O696   1.277       .  A
C658        O664   1.275       .  A
O659        C666   1.275       .  A
H660        C673   1.081       .  S
C661        O675   1.233       .  S
C661        O676   1.267   1_655  A
C661        H686   1.081       .  S
O662        C685   1.268   1_554  A
O663       Mg677   2.186   1_455  S
O664       Mg694   2.314       .  S
C665        O678   1.277   1_554  A
C665        O670   1.275       .  A
C665       C1290   1.484       .  S
C666        O693   1.276   1_455  A
C666        C996   1.483       .  S
Mg667       O674   2.177       .  S
Mg667       O675   2.186       .  S
Mg667       O668   2.319       .  S
Mg667       O669   2.295   1_556  S
Mg667       O696   2.285       .  S
O669        C673   1.267       .  A
O670       Mg677   2.316       .  S
O671        C690   1.277       .  A
O672        C692   1.275       .  A
O672       Mg688   2.316       .  S
O674       Mg688   2.186   1_655  S
O674        C685   1.233       .  S
O675       Mg694   2.174       .  S
O676       Mg688   2.296       .  S
Mg677       O693   2.279       .  S
O678       Mg694   2.284       .  S
H679        C684   1.079       .  S
O680       Mg688   2.172       .  S
O680        C683   1.233       .  S
H681        C683   1.081       .  S
H682        C685   1.081       .  S
O687       Mg694   2.296   1_455  S
C690        O695   1.274       .  A
O691        C692   1.277   1_554  A
C692        C744   1.485       .  S
C697       C1626   1.452       .  S
C697        C698   1.393       .  A
C697        C702   1.393       .  A
C698        H703   1.084       .  S
C698        C699   1.394       .  A
C699       C1636   1.452       .  S
C699        C700   1.394       .  A
C700        H704   1.084       .  S
C700        C701   1.397       .  A
C701       C1616   1.464       .  S
C701        C702   1.397       .  A
C702        H705   1.084       .  S
C706        C707   1.393       .  A
C706        C711   1.421       .  A
C707        H712   1.084   1_455  S
C707        C708   1.397       .  A
C708       C1629   1.465   1_455  S
C708        C709   1.398       .  A
C709        H713   1.084       .  S
C709        C710   1.392       .  A
C710        C786   1.479       .  S
C710        C711   1.420       .  A
C711        H714   1.083       .  S
C715        C716   1.420       .  A
C715        C720   1.393       .  A
C716        H721   1.083       .  S
C716        C717   1.420       .  A
C717        C718   1.392       .  A
C718        H722   1.084       .  S
C718        C719   1.396       .  A
C719       C1639   1.463   1_565  S
C719        C720   1.398       .  A
C720        H723   1.085   1_565  S
C724        C822   1.482       .  S
C724        C725   1.420       .  A
C724        C729   1.393       .  A
C725        H730   1.083       .  S
C725        C726   1.420       .  A
C726        C727   1.391       .  A
C727        H731   1.085       .  S
C727        C728   1.394       .  A
C728       C1619   1.456       .  S
C728        C729   1.395       .  A
C729        H732   1.085       .  S
C733       C1109   1.480       .  S
C733        C734   1.394       .  A
C733        C738   1.419       .  A
C734        H739   1.084   1_655  S
C734        C735   1.401       .  A
C735       C1606   1.470   1_655  S
C735        C736   1.397       .  A
C736        H740   1.084       .  S
C736        C737   1.391       .  A
C737        C860   1.482       .  S
C737        C738   1.419       .  A
C738        H741   1.083       .  S
C742        C785   1.480       .  S
C742        C743   1.422       .  A
C742        C747   1.393       .  A
C743        H748   1.083       .  S
C743        C744   1.422       .  A
C744        C745   1.394       .  A
C745        H749   1.085   1_556  S
C745        C746   1.394       .  A
C746       C1596   1.454   1_556  S
C746        C747   1.395       .  A
C747        H750   1.085       .  S
C751       C1609   1.458       .  S
C751        C752   1.397       .  A
C751        C756   1.395       .  A
C752        H757   1.084       .  S
C752        C753   1.394       .  A
C753       C1599   1.449       .  S
C753        C754   1.391       .  A
C754        H758   1.085       .  S
C754        C755   1.394       .  A
C755       C1586   1.449       .  S
C755        C756   1.393       .  A
C756        H759   1.084       .  S
C760        C761   1.391       .  A
C760        C765   1.421       .  A
C761        H766   1.085   1_565  S
C761        C762   1.395       .  A
C762       C1589   1.460   1_565  S
C762        C763   1.396       .  A
C763        H767   1.085       .  S
C763        C764   1.392       .  A
C764        C917   1.478       .  S
C764        C765   1.421       .  A
C765        H768   1.083       .  S
O769       Mg771   2.182       .  S
O769       Mg777   2.170       .  S
O769        C804   1.234       .  S
C770        O783   1.234       .  S
C770        O807   1.270       .  A
C770        H809   1.081       .  S
Mg771       O800   2.167       .  S
Mg771       O815   2.303       .  S
Mg771       O811   2.303       .  S
Mg771       O782   2.313       .  S
O772       Mg814   2.166       .  S
O772       Mg797   2.180       .  S
O772        C793   1.234       .  S
O773        C804   1.271       .  A
O773       Mg797   2.311       .  S
C774        O776   1.273       .  A
C774        O788   1.274       .  A
O775        C803   1.270       .  A
O775       Mg777   2.312       .  S
O776       Mg808   2.304       .  S
Mg777       O783   2.181       .  S
Mg777       O791   2.305       .  S
Mg777       O779   2.303       .  S
C778        O816   1.272       .  A
C778        O784   1.274       .  A
C778        C892   1.477       .  S
O779        C786   1.275       .  A
H780        C793   1.081       .  S
C781        O795   1.234       .  S
C781        O796   1.271       .  A
C781        H806   1.081       .  S
O782        C805   1.271       .  A
O783       Mg797   2.169       .  S
O784       Mg814   2.299       .  S
C785        O798   1.274       .  A
C785        O790   1.274       .  A
C786        O813   1.273       .  A
Mg787       O794   2.180       .  S
Mg787       O795   2.167       .  S
Mg787       O788   2.302       .  S
Mg787       O789   2.312       .  S
Mg787       O816   2.299       .  S
O789        C793   1.271       .  A
O790       Mg797   2.302       .  S
O791        C810   1.274       .  A
O792        C812   1.274       .  A
O792       Mg808   2.300       .  S
O794       Mg808   2.166       .  S
O794        C805   1.234       .  S
O795       Mg814   2.183       .  S
O796       Mg808   2.313       .  S
Mg797       O813   2.300       .  S
O798       Mg814   2.308       .  S
H799        C804   1.081       .  S
O800       Mg808   2.181       .  S
O800        C803   1.234       .  S
H801        C803   1.080       .  S
H802        C805   1.081       .  S
O807       Mg814   2.311       .  S
C810        O815   1.274       .  A
O811        C812   1.273       .  A
O817       Mg819   2.175       .  S
O817       Mg825   2.185       .  S
O817        C852   1.233       .  S
C818        O831   1.233       .  S
C818        O855   1.268       .  A
C818        H857   1.081       .  S
Mg819       O848   2.186       .  S
Mg819       O863   2.319       .  S
Mg819       O859   2.283       .  S
Mg819       O830   2.295       .  S
O820       Mg862   2.182       .  S
O820       Mg845   2.171       .  S
O820        C841   1.232       .  S
O821        C852   1.268       .  A
O821       Mg845   2.296       .  S
C822        O824   1.276       .  A
C822        O836   1.274       .  A
O823        C851   1.267       .  A
O823       Mg825   2.296       .  S
O824       Mg856   2.279       .  S
Mg825       O831   2.175       .  S
Mg825       O839   2.282       .  S
Mg825       O827   2.320       .  S
C826        O864   1.276       .  A
C826        O832   1.275       .  A
C826       C1016   1.482       .  S
O827        C834   1.275       .  A
H828        C841   1.080       .  S
C829        O843   1.233       .  S
C829        O844   1.267       .  A
C829        H854   1.081       .  S
O830        C853   1.267       .  A
O831       Mg845   2.185       .  S
O832       Mg862   2.316       .  S
C833        O846   1.277       .  A
C833        O838   1.275       .  A
C834        O861   1.276       .  A
Mg835       O842   2.170       .  S
Mg835       O843   2.187       .  S
Mg835       O836   2.313       .  S
Mg835       O837   2.294       .  S
Mg835       O864   2.276       .  S
O837        C841   1.267       .  A
O838       Mg845   2.317       .  S
O839        C858   1.277       .  A
O840        C860   1.274       .  A
O840       Mg856   2.311       .  S
O842       Mg856   2.185       .  S
O842        C853   1.233       .  S
O843       Mg862   2.173       .  S
O844       Mg856   2.295       .  S
Mg845       O861   2.279       .  S
O846       Mg862   2.284       .  S
H847        C852   1.081       .  S
O848       Mg856   2.173       .  S
O848        C851   1.233       .  S
H849        C851   1.081       .  S
H850        C853   1.081       .  S
O855       Mg862   2.297       .  S
C858        O863   1.275       .  A
C858        C953   1.485       .  S
O859        C860   1.277       .  A
C865        C918   1.479       .  S
C865        C866   1.420       .  A
C865        C870   1.393       .  A
C866        H871   1.083       .  S
C866        C867   1.421       .  A
C867        C868   1.394       .  A
C868        H872   1.085   1_554  S
C868        C869   1.395       .  A
C869       C1576   1.460   1_554  S
C869        C870   1.396       .  A
C870        H873   1.085       .  S
C874       C1559   1.449       .  S
C874        C875   1.393       .  A
C874        C879   1.391       .  A
C875        H880   1.084       .  S
C875        C876   1.398       .  A
C876       C1579   1.468       .  S
C876        C877   1.400       .  A
C877        H881   1.084       .  S
C877        C878   1.396       .  A
C878       C1566   1.453       .  S
C878        C879   1.392       .  A
C879        H882   1.085       .  S
C883        C884   1.419       .  A
C883        C888   1.392       .  A
C884        H889   1.083       .  S
C884        C885   1.419       .  A
C885        C886   1.393       .  A
C886        H890   1.084   1_655  S
C886        C887   1.398       .  A
C887       C1569   1.465   1_655  S
C887        C888   1.397       .  A
C888        H891   1.084       .  S
C892        C893   1.420       .  A
C892        C897   1.392       .  A
C893        H898   1.083       .  S
C893        C894   1.420       .  A
C894        C895   1.392       .  A
C895        H899   1.084       .  S
C895        C896   1.396       .  A
C896       C1556   1.461       .  S
C896        C897   1.396       .  A
C897        H900   1.085       .  S
O901       Mg903   2.181       .  S
O901       Mg909   2.167       .  S
O901        C936   1.234       .  S
C902        O915   1.234       .  S
C902        O939   1.270       .  A
C902        H941   1.080       .  S
Mg903       O932   2.169       .  S
Mg903       O947   2.302       .  S
Mg903       O943   2.301       .  S
Mg903       O914   2.312       .  S
O904       Mg946   2.168       .  S
O904       Mg929   2.180       .  S
O904        C925   1.234       .  S
O905        C936   1.271       .  A
O905       Mg929   2.313       .  S
C906        O908   1.273       .  A
C906        O920   1.274       .  A
O907        C935   1.271       .  A
O907       Mg909   2.312       .  S
O908       Mg940   2.304       .  S
Mg909       O915   2.179       .  S
Mg909       O923   2.299       .  S
Mg909       O911   2.300       .  S
C910        O948   1.273       .  A
C910        O916   1.274       .  A
C910        C976   1.477       .  S
O911        C918   1.274       .  A
H912        C925   1.081       .  S
C913        O927   1.234       .  S
C913        O928   1.270       .  A
C913        H938   1.081       .  S
O914        C937   1.270       .  A
O915       Mg929   2.166       .  S
O916       Mg946   2.298       .  S
C917        O930   1.273       .  A
C917        O922   1.274       .  A
C918        O945   1.273       .  A
Mg919       O926   2.179       .  S
Mg919       O927   2.168       .  S
Mg919       O920   2.303       .  S
Mg919       O921   2.311       .  S
Mg919       O948   2.299       .  S
O921        C925   1.270       .  A
O922       Mg929   2.301       .  S
O923        C942   1.273       .  A
O924        C944   1.274       .  A
O924       Mg940   2.301       .  S
O926       Mg940   2.169       .  S
O926        C937   1.234       .  S
O927       Mg946   2.182       .  S
O928       Mg940   2.311       .  S
Mg929       O945   2.303       .  S
O930       Mg946   2.302       .  S
H931        C936   1.081       .  S
O932       Mg940   2.181       .  S
O932        C935   1.234       .  S
H933        C935   1.081       .  S
H934        C937   1.081       .  S
O939       Mg946   2.311       .  S
C942        O947   1.274       .  A
C942        C994   1.478       .  S
O943        C944   1.273       .  A
C949        C950   1.392       .  A
C949        C954   1.423       .  A
C950        H955   1.085   1_545  S
C950        C951   1.396       .  A
C951       C1549   1.463   1_545  S
C951        C952   1.395       .  A
C952        H956   1.084       .  S
C952        C953   1.393       .  A
C953        C954   1.422       .  A
C954        H957   1.083       .  S
C958       C1546   1.450       .  S
C958        C959   1.394       .  A
C958        C963   1.394       .  A
C959        H964   1.085       .  S
C959        C960   1.394       .  A
C960       C1536   1.452       .  S
C960        C961   1.394       .  A
C961        H965   1.085       .  S
C961        C962   1.392       .  A
C962       C1526   1.445       .  S
C962        C963   1.392       .  A
C963        H966   1.085       .  S
C967        C968   1.421       .  A
C967        C972   1.394       .  A
C968        H973   1.083       .  S
C968        C969   1.421       .  A
C969        C970   1.392       .  A
C970        H974   1.084   1_556  S
C970        C971   1.394       .  A
C971       C1539   1.463   1_556  S
C971        C972   1.396       .  A
C972        H975   1.084       .  S
C976        C977   1.420       .  A
C976        C981   1.391       .  A
C977        H982   1.083       .  S
C977        C978   1.420       .  A
C978        C979   1.392       .  A
C979        H983   1.085       .  S
C979        C980   1.394       .  A
C980       C1529   1.450       .  S
C980        C981   1.394       .  A
C981        H984   1.085       .  S
C985       C1506   1.451       .  S
C985        C986   1.394       .  A
C985        C990   1.393       .  A
C986        H991   1.085       .  S
C986        C987   1.395       .  A
C987       C1516   1.451       .  S
C987        C988   1.394       .  A
C988        H992   1.085       .  S
C988        C989   1.393       .  A
C989       C1499   1.449       .  S
C989        C990   1.393       .  A
C990        H993   1.085       .  S
C994        C995   1.420       .  A
C994        C999   1.393       .  A
C995       H1000   1.083       .  S
C995        C996   1.420       .  A
C996        C997   1.393       .  A
C997       H1001   1.085   1_455  S
C997        C998   1.395       .  A
C998       C1509   1.461   1_455  S
C998        C999   1.397       .  A
C999       H1002   1.085       .  S
C1003      C1004   1.394       .  A
C1003      C1008   1.420       .  A
C1004      H1009   1.085       .  S
C1004      C1005   1.395       .  A
C1005      C1496   1.458       .  S
C1005      C1006   1.395       .  A
C1006      H1010   1.085       .  S
C1006      C1007   1.392       .  A
C1007      C1098   1.477       .  S
C1007      C1008   1.420       .  A
C1008      H1011   1.083       .  S
C1012      C1013   1.392       .  A
C1012      C1017   1.419       .  A
C1013      H1018   1.085       .  S
C1013      C1014   1.397       .  A
C1014      C1519   1.461       .  S
C1014      C1015   1.396       .  A
C1015      H1019   1.085       .  S
C1015      C1016   1.393       .  A
C1016      C1017   1.419       .  A
C1017      H1020   1.083       .  S
C1021      C1022   1.419       .  A
C1021      C1026   1.393       .  A
C1022      H1027   1.083       .  S
C1022      C1023   1.419       .  A
C1023      C1024   1.393       .  A
C1024      H1028   1.084   1_655  S
C1024      C1025   1.398       .  A
C1025      C1486   1.466   1_655  S
C1025      C1026   1.398       .  A
C1026      H1029   1.084       .  S
C1030      C1476   1.462       .  S
C1030      C1031   1.397       .  A
C1030      C1035   1.396       .  A
C1031      H1036   1.084       .  S
C1031      C1032   1.394       .  A
C1032      C1489   1.454       .  S
C1032      C1033   1.394       .  A
C1033      H1037   1.084       .  S
C1033      C1034   1.395       .  A
C1034      C1469   1.454       .  S
C1034      C1035   1.394       .  A
C1035      H1038   1.084       .  S
C1039      C1186   1.483       .  S
C1039      C1040   1.420       .  A
C1039      C1044   1.393       .  A
C1040      H1045   1.083       .  S
C1040      C1041   1.420       .  A
C1041      C1042   1.393       .  A
C1042      H1046   1.084   1_545  S
C1042      C1043   1.398       .  A
C1043      C1466   1.465   1_545  S
C1043      C1044   1.396       .  A
C1044      H1047   1.084       .  S
C1048      C1338   1.475       .  S
C1048      C1049   1.419       .  A
C1048      C1053   1.391       .  A
C1049      H1054   1.083       .  S
C1049      C1050   1.418       .  A
C1050      C1051   1.391       .  A
C1051      H1055   1.085       .  S
C1051      C1052   1.395       .  A
C1052      C1479   1.454       .  S
C1052      C1053   1.395       .  A
C1053      H1056   1.085       .  S
C1057      C1058   1.393       .  A
C1057      C1062   1.420       .  A
C1058      H1063   1.084   1_565  S
C1058      C1059   1.398       .  A
C1059      C1456   1.465   1_565  S
C1059      C1060   1.397       .  A
C1060      H1064   1.084       .  S
C1060      C1061   1.392       .  A
C1061      C1302   1.478       .  S
C1061      C1062   1.420       .  A
C1062      H1065   1.083       .  S
C1066      C1446   1.451       .  S
C1066      C1067   1.393       .  A
C1066      C1071   1.394       .  A
C1067      H1072   1.085       .  S
C1067      C1068   1.393       .  A
C1068      C1459   1.453       .  S
C1068      C1069   1.395       .  A
C1069      H1073   1.084       .  S
C1069      C1070   1.395       .  A
C1070      C1439   1.454       .  S
C1070      C1071   1.395       .  A
C1071      H1074   1.084       .  S
C1075      C1076   1.393       .  A
C1075      C1080   1.421       .  A
C1076      H1081   1.084   1_554  S
C1076      C1077   1.396       .  A
C1077      C1436   1.466   1_554  S
C1077      C1078   1.396       .  A
C1078      H1082   1.084       .  S
C1078      C1079   1.394       .  A
C1079      C1194   1.483       .  S
C1079      C1080   1.420       .  A
C1080      H1083   1.083       .  S
C1084      C1085   1.420       .  A
C1084      C1089   1.392       .  A
C1085      H1090   1.083       .  S
C1085      C1086   1.420       .  A
C1086      C1087   1.393       .  A
C1087      H1091   1.085       .  S
C1087      C1088   1.396       .  A
C1088      C1449   1.461       .  S
C1088      C1089   1.397       .  A
C1089      H1092   1.085       .  S
O1093     Mg1095   2.181       .  S
O1093     Mg1101   2.172       .  S
O1093      C1128   1.234       .  S
C1094      O1107   1.234       .  S
C1094      O1131   1.271       .  A
C1094      H1133   1.081       .  S
Mg1095     O1124   2.167   1_545  S
Mg1095     O1139   2.300       .  S
Mg1095     O1135   2.304   1_545  S
Mg1095     O1106   2.312   1_445  S
O1096     Mg1138   2.165   1_545  S
O1096     Mg1121   2.175       .  S
O1096      C1117   1.234       .  S
O1097      C1128   1.270       .  A
O1097     Mg1121   2.310   1_455  S
C1098      O1100   1.273       .  A
C1098      O1112   1.274       .  A
O1099      C1127   1.270       .  A
O1099     Mg1101   2.311   1_565  S
O1100     Mg1132   2.300   1_655  S
Mg1101     O1107   2.180       .  S
Mg1101     O1115   2.305       .  S
Mg1101     O1103   2.302       .  S
C1102      O1140   1.273       .  A
C1102      O1108   1.273       .  A
O1103      C1110   1.274       .  A
H1104      C1117   1.081       .  S
C1105      O1119   1.234       .  S
C1105      O1120   1.271       .  A
C1105      H1130   1.081       .  S
O1106      C1129   1.271       .  A
O1107     Mg1121   2.171   1_455  S
O1108     Mg1138   2.295       .  S
C1109      O1122   1.273       .  A
C1109      O1114   1.274       .  A
C1110      O1137   1.273       .  A
C1110      C1159   1.477       .  S
Mg1111     O1118   2.180       .  S
Mg1111     O1119   2.169       .  S
Mg1111     O1112   2.299       .  S
Mg1111     O1113   2.310   1_565  S
Mg1111     O1140   2.301       .  S
O1113      C1117   1.270       .  A
O1114     Mg1121   2.301       .  S
O1115      C1134   1.274       .  A
O1116      C1136   1.274       .  A
O1116     Mg1132   2.303       .  S
O1118     Mg1132   2.167   1_655  S
O1118      C1129   1.234       .  S
O1119     Mg1138   2.181       .  S
O1120     Mg1132   2.313   1_655  S
Mg1121     O1137   2.297   1_655  S
O1122     Mg1138   2.306   1_545  S
H1123      C1128   1.081       .  S
O1124     Mg1132   2.179       .  S
O1124      C1127   1.234       .  S
H1125      C1127   1.081       .  S
H1126      C1129   1.081       .  S
O1131     Mg1138   2.311   1_445  S
C1134      O1139   1.274       .  A
O1135      C1136   1.273       .  A
C1136      C1272   1.479       .  S
C1141      C1142   1.423       .  A
C1141      C1146   1.394       .  A
C1142      H1147   1.083       .  S
C1142      C1143   1.423       .  A
C1143      C1144   1.392       .  A
C1144      H1148   1.085       .  S
C1144      C1145   1.394       .  A
C1145      C1426   1.460   1_655  S
C1145      C1146   1.394       .  A
C1146      H1149   1.084   1_655  S
C1150      C1429   1.463       .  S
C1150      C1151   1.396       .  A
C1150      C1155   1.391       .  A
C1151      H1156   1.081       .  S
C1151      C1152   1.402       .  A
C1152      C1416   1.486       .  S
C1152      C1153   1.407       .  A
C1153      H1157   1.079       .  S
C1153      C1154   1.397       .  A
C1154      C1406   1.461       .  S
C1154      C1155   1.390       .  A
C1155      H1158   1.083       .  S
C1159      C1160   1.393       .  A
C1159      C1164   1.419       .  A
C1160      H1165   1.083       .  S
C1160      C1161   1.400       .  A
C1161      C1409   1.471       .  S
C1161      C1162   1.398       .  A
C1162      H1166   1.084       .  S
C1162      C1163   1.392       .  A
C1163      C1182   1.482       .  S
C1163      C1164   1.418       .  A
C1164      H1167   1.083       .  S
C1168      C1314   1.478       .  S
C1168      C1169   1.394       .  A
C1168      C1173   1.412       .  A
C1169      H1174   1.078       .  S
C1169      C1170   1.413       .  A
C1170      C1419   1.499       .  S
C1170      C1171   1.406       .  A
C1171      H1175   1.076       .  S
C1171      C1172   1.392       .  A
C1172      C1173   1.411       .  A
C1173      H1176   1.083       .  S
O1177     Mg1179   2.171       .  S
O1177     Mg1185   2.179       .  S
O1177      C1212   1.231       .  S
C1178      O1191   1.233       .  S
C1178      O1215   1.268       .  A
C1178      H1217   1.081       .  S
Mg1179     O1208   2.184       .  S
Mg1179     O1223   2.316       .  S
Mg1179     O1219   2.277       .  S
Mg1179     O1190   2.295       .  S
O1180     Mg1222   2.184       .  S
O1180     Mg1205   2.170       .  S
O1180      C1201   1.233       .  S
O1181      C1212   1.267       .  A
O1181     Mg1205   2.295       .  S
C1182      O1184   1.276       .  A
C1182      O1196   1.274       .  A
O1183      C1211   1.268       .  A
O1183     Mg1185   2.297       .  S
O1184     Mg1216   2.277       .  S
Mg1185     O1191   2.173       .  S
Mg1185     O1199   2.281       .  S
Mg1185     O1187   2.320       .  S
C1186      O1224   1.276       .  A
C1186      O1192   1.275       .  A
O1187      C1194   1.275       .  A
H1188      C1201   1.081       .  S
C1189      O1203   1.233       .  S
C1189      O1204   1.267       .  A
C1189      H1214   1.081       .  S
O1190      C1213   1.267       .  A
O1191     Mg1205   2.187       .  S
O1192     Mg1222   2.316       .  S
C1193      O1206   1.276       .  A
C1193      O1198   1.275       .  A
C1194      O1221   1.276       .  A
Mg1195     O1202   2.172       .  S
Mg1195     O1203   2.184       .  S
Mg1195     O1196   2.313       .  S
Mg1195     O1197   2.294       .  S
Mg1195     O1224   2.277       .  S
O1197      C1201   1.267       .  A
O1198     Mg1205   2.316       .  S
O1199      C1218   1.277       .  A
O1200      C1220   1.275       .  A
O1200     Mg1216   2.318       .  S
O1202     Mg1216   2.185       .  S
O1202      C1213   1.233       .  S
O1203     Mg1222   2.168       .  S
O1204     Mg1216   2.294       .  S
Mg1205     O1221   2.274       .  S
O1206     Mg1222   2.274       .  S
H1207      C1212   1.079       .  S
O1208     Mg1216   2.173       .  S
O1208      C1211   1.233       .  S
H1209      C1211   1.081       .  S
H1210      C1213   1.081       .  S
O1215     Mg1222   2.296       .  S
C1218      O1223   1.275       .  A
O1219      C1220   1.276       .  A
C1220      C1245   1.483       .  S
C1225      C1376   1.491       .  S
C1225      C1226   1.408       .  A
C1225      C1230   1.406       .  A
C1226      H1231   1.078       .  S
C1226      C1227   1.395       .  A
C1227      C1399   1.456       .  S
C1227      C1228   1.388       .  A
C1228      H1232   1.085       .  S
C1228      C1229   1.388       .  A
C1229      C1386   1.455       .  S
C1229      C1230   1.394       .  A
C1230      H1233   1.077       .  S
C1234      C1235   1.417       .  A
C1234      C1239   1.395       .  A
C1235      H1240   1.083       .  S
C1235      C1236   1.417       .  A
C1236      C1237   1.395       .  A
C1237      H1241   1.078       .  S
C1237      C1238   1.401       .  A
C1238      C1379   1.489   1_556  S
C1238      C1239   1.404       .  A
C1239      H1242   1.080   1_556  S
C1243      C1244   1.420       .  A
C1243      C1248   1.391       .  A
C1244      H1249   1.083       .  S
C1244      C1245   1.421       .  A
C1245      C1246   1.393       .  A
C1246      H1250   1.085       .  S
C1246      C1247   1.395       .  A
C1247      C1389   1.460   1_455  S
C1247      C1248   1.396       .  A
C1248      H1251   1.085   1_455  S
C1252      C1253   1.420       .  A
C1252      C1257   1.391       .  A
C1253      H1258   1.083       .  S
C1253      C1254   1.420       .  A
C1254      C1255   1.393       .  A
C1255      H1259   1.085       .  S
C1255      C1256   1.396       .  A
C1256      C1396   1.462       .  S
C1256      C1257   1.397       .  A
C1257      H1260   1.084       .  S
C1261      C1366   1.455       .  S
C1261      C1262   1.396       .  A
C1261      C1266   1.394       .  A
C1262      H1267   1.084       .  S
C1262      C1263   1.396       .  A
C1263      C1356   1.455       .  S
C1263      C1264   1.394       .  A
C1264      H1268   1.085       .  S
C1264      C1265   1.393       .  A
C1265      C1346   1.452       .  S
C1265      C1266   1.393       .  A
C1266      H1269   1.085       .  S
C1270      C1340   1.476       .  S
C1270      C1271   1.418       .  A
C1270      C1275   1.390       .  A
C1271      H1276   1.083       .  S
C1271      C1272   1.418       .  A
C1272      C1273   1.393       .  A
C1273      H1277   1.084   1_455  S
C1273      C1274   1.400       .  A
C1274      C1369   1.464   1_455  S
C1274      C1275   1.398       .  A
C1275      H1278   1.084       .  S
C1279      C1280   1.423       .  A
C1279      C1284   1.394       .  A
C1280      H1285   1.083       .  S
C1280      C1281   1.422       .  A
C1281      C1282   1.393       .  A
C1282      H1286   1.084   1_545  S
C1282      C1283   1.395       .  A
C1283      C1349   1.465   1_545  S
C1283      C1284   1.397       .  A
C1284      H1287   1.084       .  S
C1288      C1289   1.421       .  A
C1288      C1293   1.392       .  A
C1289      H1294   1.083       .  S
C1289      C1290   1.422       .  A
C1290      C1291   1.394       .  A
C1291      H1295   1.085   1_554  S
C1291      C1292   1.393       .  A
C1292      C1359   1.449   1_554  S
C1292      C1293   1.393       .  A
C1293      H1296   1.085       .  S
O1297     Mg1299   2.175       .  S
O1297     Mg1305   2.166       .  S
O1297      C1332   1.234       .  S
C1298      O1311   1.234       .  S
C1298      O1335   1.271       .  A
C1298      H1337   1.081       .  S
Mg1299     O1328   2.170       .  S
Mg1299     O1343   2.295       .  S
Mg1299     O1339   2.296       .  S
Mg1299     O1310   2.310       .  S
O1300     Mg1342   2.165       .  S
O1300     Mg1325   2.181       .  S
O1300      C1321   1.234       .  S
O1301      C1332   1.270       .  A
O1301     Mg1325   2.310       .  S
C1302      O1304   1.273       .  A
C1302      O1316   1.274       .  A
O1303      C1331   1.270       .  A
O1303     Mg1305   2.309       .  S
O1304     Mg1336   2.300       .  S
Mg1305     O1311   2.181       .  S
Mg1305     O1319   2.293       .  S
Mg1305     O1307   2.295       .  S
C1306      O1344   1.273       .  A
C1306      O1312   1.274       .  A
O1307      C1314   1.272       .  A
H1308      C1321   1.081       .  S
C1309      O1323   1.234       .  S
C1309      O1324   1.271       .  A
C1309      H1334   1.081       .  S
O1310      C1333   1.270       .  A
O1311     Mg1325   2.164       .  S
O1312     Mg1342   2.300       .  S
C1313      O1326   1.273       .  A
C1313      O1318   1.275       .  A
C1314      O1341   1.274       .  A
Mg1315     O1322   2.179       .  S
Mg1315     O1323   2.167       .  S
Mg1315     O1316   2.301       .  S
Mg1315     O1317   2.314       .  S
Mg1315     O1344   2.302       .  S
O1317      C1321   1.271       .  A
O1318     Mg1325   2.303       .  S
O1319      C1338   1.272       .  A
O1320      C1340   1.274       .  A
O1320     Mg1336   2.298       .  S
O1322     Mg1336   2.169       .  S
O1322      C1333   1.234       .  S
O1323     Mg1342   2.182       .  S
O1324     Mg1336   2.313       .  S
Mg1325     O1341   2.301       .  S
O1326     Mg1342   2.303       .  S
H1327      C1332   1.080       .  S
O1328     Mg1336   2.176       .  S
O1328      C1331   1.234       .  S
H1329      C1331   1.081       .  S
H1330      C1333   1.081       .  S
O1335     Mg1342   2.314       .  S
C1338      O1343   1.273       .  A
O1339      C1340   1.272       .  A
C1345      H1352   1.084       .  S
C1345      C1346   1.398       .  A
C1345      C1350   1.388       .  A
C1346      C1347   1.400       .  A
C1347      C1348   1.387       .  A
C1347      F1354   1.358       .  S
C1348      H1353   1.083   1_565  S
C1348      C1349   1.404       .  A
C1349      C1350   1.407       .  A
C1350      F1351   1.358       .  S
C1355      H1362   1.084       .  S
C1355      C1356   1.401       .  A
C1355      C1360   1.389       .  A
C1356      C1357   1.403       .  A
C1357      C1358   1.388       .  A
C1357      F1364   1.358       .  S
C1358      H1363   1.084       .  S
C1358      C1359   1.398       .  A
C1359      C1360   1.400       .  A
C1360      F1361   1.358   1_556  S
C1365      H1372   1.084       .  S
C1365      C1366   1.399       .  A
C1365      C1370   1.388   1_655  A
C1366      C1367   1.402       .  A
C1367      C1368   1.388       .  A
C1367      F1374   1.358       .  S
C1368      H1373   1.083       .  S
C1368      C1369   1.403       .  A
C1369      C1370   1.407   1_655  A
C1370      F1371   1.358       .  S
C1375      H1382   1.078       .  S
C1375      C1376   1.407       .  A
C1375      C1380   1.387       .  A
C1376      C1377   1.412       .  A
C1377      C1378   1.387       .  A
C1377      F1384   1.356       .  S
C1378      H1383   1.079       .  S
C1378      C1379   1.406       .  A
C1379      C1380   1.411       .  A
C1380      F1381   1.357   1_554  S
C1385      H1392   1.084       .  S
C1385      C1386   1.401       .  A
C1385      C1390   1.386       .  A
C1386      C1387   1.400       .  A
C1387      C1388   1.388   1_655  A
C1387      F1394   1.356       .  S
C1388      H1393   1.083       .  S
C1388      C1389   1.403   1_455  A
C1389      C1390   1.403       .  A
C1390      F1391   1.358       .  S
C1395      H1402   1.083       .  S
C1395      C1396   1.404       .  A
C1395      C1400   1.388       .  A
C1396      C1397   1.404       .  A
C1397      C1398   1.386       .  A
C1397      F1404   1.358       .  S
C1398      H1403   1.084       .  S
C1398      C1399   1.401       .  A
C1399      C1400   1.400       .  A
C1400      F1401   1.357       .  S
C1405      H1412   1.084       .  S
C1405      C1406   1.402       .  A
C1405      C1410   1.386       .  A
C1406      C1407   1.400       .  A
C1407      C1408   1.390       .  A
C1407      F1414   1.357       .  S
C1408      H1413   1.083       .  S
C1408      C1409   1.408       .  A
C1409      C1410   1.406       .  A
C1410      F1411   1.358       .  S
C1415      H1422   1.080       .  S
C1415      C1416   1.402       .  A
C1415      C1420   1.388       .  A
C1416      C1417   1.410       .  A
C1417      C1418   1.387       .  A
C1417      F1424   1.357       .  S
C1418      H1423   1.077       .  S
C1418      C1419   1.409       .  A
C1419      C1420   1.418       .  A
C1420      F1421   1.355       .  S
C1425      H1432   1.083       .  S
C1425      C1426   1.402       .  A
C1425      C1430   1.387       .  A
C1426      C1427   1.403       .  A
C1427      C1428   1.386       .  A
C1427      F1434   1.358       .  S
C1428      H1433   1.083       .  S
C1428      C1429   1.403       .  A
C1429      C1430   1.405       .  A
C1430      F1431   1.358       .  S
C1435      H1442   1.083       .  S
C1435      C1436   1.404       .  A
C1435      C1440   1.387       .  A
C1436      C1437   1.407       .  A
C1437      C1438   1.388       .  A
C1437      F1444   1.358   1_556  S
C1438      H1443   1.084       .  S
C1438      C1439   1.399       .  A
C1439      C1440   1.400       .  A
C1440      F1441   1.358       .  S
C1445      H1452   1.084       .  S
C1445      C1446   1.397       .  A
C1445      C1450   1.387       .  A
C1446      C1447   1.400       .  A
C1447      C1448   1.388       .  A
C1447      F1454   1.357       .  S
C1448      H1453   1.083       .  S
C1448      C1449   1.402       .  A
C1449      C1450   1.406       .  A
C1450      F1451   1.358       .  S
C1455      H1462   1.083       .  S
C1455      C1456   1.404       .  A
C1455      C1460   1.387       .  A
C1456      C1457   1.406   1_545  A
C1457      C1458   1.388   1_565  A
C1457      F1464   1.358       .  S
C1458      H1463   1.084       .  S
C1458      C1459   1.399       .  A
C1459      C1460   1.400       .  A
C1460      F1461   1.358       .  S
C1465      H1472   1.083       .  S
C1465      C1466   1.403       .  A
C1465      C1470   1.388       .  A
C1466      C1467   1.407       .  A
C1467      C1468   1.388       .  A
C1467      F1474   1.358   1_565  S
C1468      H1473   1.084       .  S
C1468      C1469   1.398       .  A
C1469      C1470   1.401       .  A
C1470      F1471   1.358       .  S
C1475      H1482   1.083       .  S
C1475      C1476   1.403       .  A
C1475      C1480   1.387       .  A
C1476      C1477   1.406       .  A
C1477      C1478   1.387       .  A
C1477      F1484   1.358       .  S
C1478      H1483   1.084       .  S
C1478      C1479   1.399       .  A
C1479      C1480   1.401       .  A
C1480      F1481   1.358       .  S
C1485      H1492   1.083       .  S
C1485      C1486   1.404       .  A
C1485      C1490   1.387       .  A
C1486      C1487   1.406       .  A
C1487      C1488   1.389       .  A
C1487      F1494   1.358   1_455  S
C1488      H1493   1.084       .  S
C1488      C1489   1.399       .  A
C1489      C1490   1.400       .  A
C1490      F1491   1.357       .  S
C1495      H1502   1.083       .  S
C1495      C1496   1.401       .  A
C1495      C1500   1.388       .  A
C1496      C1497   1.405       .  A
C1497      C1498   1.388       .  A
C1497      F1504   1.358       .  S
C1498      H1503   1.084       .  S
C1498      C1499   1.398       .  A
C1499      C1500   1.400       .  A
C1500      F1501   1.357       .  S
C1505      H1512   1.084       .  S
C1505      C1506   1.398       .  A
C1505      C1510   1.388       .  A
C1506      C1507   1.400       .  A
C1507      C1508   1.388       .  A
C1507      F1514   1.357       .  S
C1508      H1513   1.083   1_655  S
C1508      C1509   1.402       .  A
C1509      C1510   1.406       .  A
C1510      F1511   1.358       .  S
C1515      H1522   1.084       .  S
C1515      C1516   1.398       .  A
C1515      C1520   1.388       .  A
C1516      C1517   1.400       .  A
C1517      C1518   1.388       .  A
C1517      F1524   1.357       .  S
C1518      H1523   1.083       .  S
C1518      C1519   1.402       .  A
C1519      C1520   1.406       .  A
C1520      F1521   1.358       .  S
C1525      H1532   1.083       .  S
C1525      C1526   1.398       .  A
C1525      C1530   1.390       .  A
C1526      C1527   1.398       .  A
C1527      C1528   1.387       .  A
C1527      F1534   1.356       .  S
C1528      H1533   1.084       .  S
C1528      C1529   1.399       .  A
C1529      C1530   1.402       .  A
C1530      F1531   1.358       .  S
C1535      H1542   1.084       .  S
C1535      C1536   1.398       .  A
C1535      C1540   1.387       .  A
C1536      C1537   1.401       .  A
C1537      C1538   1.387       .  A
C1537      F1544   1.358       .  S
C1538      H1543   1.083   1_554  S
C1538      C1539   1.403       .  A
C1539      C1540   1.407       .  A
C1540      F1541   1.358       .  S
C1545      H1552   1.084       .  S
C1545      C1546   1.398       .  A
C1545      C1550   1.388       .  A
C1546      C1547   1.399       .  A
C1547      C1548   1.386       .  A
C1547      F1554   1.357       .  S
C1548      H1553   1.083       .  S
C1548      C1549   1.403       .  A
C1549      C1550   1.407       .  A
C1550      F1551   1.358   1_565  S
C1555      H1562   1.083       .  S
C1555      C1556   1.404       .  A
C1555      C1560   1.389       .  A
C1556      C1557   1.406       .  A
C1557      C1558   1.386       .  A
C1557      F1564   1.358       .  S
C1558      H1563   1.084       .  S
C1558      C1559   1.397       .  A
C1559      C1560   1.400       .  A
C1560      F1561   1.358       .  S
C1565      H1572   1.084       .  S
C1565      C1566   1.397       .  A
C1565      C1570   1.386       .  A
C1566      C1567   1.401       .  A
C1567      C1568   1.389       .  A
C1567      F1574   1.357       .  S
C1568      H1573   1.083       .  S
C1568      C1569   1.404       .  A
C1569      C1570   1.407       .  A
C1570      F1571   1.358   1_455  S
C1575      H1582   1.084       .  S
C1575      C1576   1.400       .  A
C1575      C1580   1.388       .  A
C1576      C1577   1.403       .  A
C1577      C1578   1.388       .  A
C1577      F1584   1.358       .  S
C1578      H1583   1.083       .  S
C1578      C1579   1.404       .  A
C1579      C1580   1.408       .  A
C1580      F1581   1.358       .  S
C1585      H1592   1.084       .  S
C1585      C1586   1.398       .  A
C1585      C1590   1.386       .  A
C1586      C1587   1.400       .  A
C1587      C1588   1.388   1_545  A
C1587      F1594   1.357       .  S
C1588      H1593   1.083       .  S
C1588      C1589   1.403   1_565  A
C1589      C1590   1.406       .  A
C1590      F1591   1.358       .  S
C1595      H1602   1.084       .  S
C1595      C1596   1.401       .  A
C1595      C1600   1.388       .  A
C1596      C1597   1.403   1_554  A
C1597      C1598   1.390   1_556  A
C1597      F1604   1.358       .  S
C1598      H1603   1.083       .  S
C1598      C1599   1.398       .  A
C1599      C1600   1.398       .  A
C1600      F1601   1.356       .  S
C1605      H1612   1.083       .  S
C1605      C1606   1.404       .  A
C1605      C1610   1.389       .  A
C1606      C1607   1.409       .  A
C1607      C1608   1.386       .  A
C1607      F1614   1.358   1_455  S
C1608      H1613   1.084       .  S
C1608      C1609   1.398       .  A
C1609      C1610   1.403       .  A
C1610      F1611   1.358       .  S
C1615      H1622   1.083       .  S
C1615      C1616   1.404       .  A
C1615      C1620   1.387       .  A
C1616      C1617   1.407       .  A
C1617      C1618   1.387       .  A
C1617      F1624   1.358       .  S
C1618      H1623   1.084       .  S
C1618      C1619   1.399       .  A
C1619      C1620   1.401       .  A
C1620      F1621   1.358       .  S
C1625      H1632   1.084       .  S
C1625      C1626   1.399       .  A
C1625      C1630   1.388       .  A
C1626      C1627   1.399       .  A
C1627      C1628   1.388       .  A
C1627      F1634   1.358       .  S
C1628      H1633   1.083       .  S
C1628      C1629   1.405       .  A
C1629      C1630   1.406       .  A
C1630      F1631   1.358   1_655  S
C1635      H1642   1.084       .  S
C1635      C1636   1.397       .  A
C1635      C1640   1.388   1_545  A
C1636      C1637   1.401       .  A
C1637      C1638   1.387       .  A
C1637      F1644   1.358       .  S
C1638      H1643   1.083       .  S
C1638      C1639   1.402       .  A
C1639      C1640   1.408   1_545  A
C1640      F1641   1.358       .  S
C1645      H1652   1.084       .  S
C1645      C1646   1.398       .  A
C1645      C1650   1.387       .  A
C1646      C1647   1.400       .  A
C1647      C1648   1.388       .  A
C1647      F1654   1.358       .  S
C1648      H1653   1.083       .  S
C1648      C1649   1.405       .  A
C1649      C1650   1.407       .  A
C1650      F1651   1.358       .  S
C1655      H1662   1.083       .  S
C1655      C1656   1.403       .  A
C1655      C1660   1.387       .  A
C1656      C1657   1.406       .  A
C1657      C1658   1.389       .  A
C1657      F1664   1.358       .  S
C1658      H1663   1.084       .  S
C1658      C1659   1.399       .  A
C1659      C1660   1.400       .  A
C1660      F1661   1.358       .  S
C1665      H1672   1.084       .  S
C1665      C1666   1.400       .  A
C1665      C1670   1.388       .  A
C1666      C1667   1.401       .  A
C1667      C1668   1.388       .  A
C1667      F1674   1.358       .  S
C1668      H1673   1.083       .  S
C1668      C1669   1.404       .  A
C1669      C1670   1.406       .  A
C1670      F1671   1.358       .  S
C1675      H1682   1.083       .  S
C1675      C1676   1.405       .  A
C1675      C1680   1.388       .  A
C1676      C1677   1.406       .  A
C1677      C1678   1.387       .  A
C1677      F1684   1.358       .  S
C1678      H1683   1.084       .  S
C1678      C1679   1.398       .  A
C1679      C1680   1.399       .  A
C1680      F1681   1.358       .  S
C1685      H1692   1.084       .  S
C1685      C1686   1.398       .  A
C1685      C1690   1.388       .  A
C1686      C1687   1.399       .  A
C1687      C1688   1.388       .  A
C1687      F1694   1.357       .  S
C1688      H1693   1.084       .  S
C1688      C1689   1.402       .  A
C1689      C1690   1.403       .  A
C1690      F1691   1.358       .  S
C1695      H1702   1.084       .  S
C1695      C1696   1.399       .  A
C1695      C1700   1.387       .  A
C1696      C1697   1.401       .  A
C1697      C1698   1.387       .  A
C1697      F1704   1.358       .  S
C1698      H1703   1.083       .  S
C1698      C1699   1.404       .  A
C1699      C1700   1.407       .  A
C1700      F1701   1.358       .  S
C1705      H1712   1.083       .  S
C1705      C1706   1.404       .  A
C1705      C1710   1.388       .  A
C1706      C1707   1.407       .  A
C1707      C1708   1.388       .  A
C1707      F1714   1.358       .  S
C1708      H1713   1.084       .  S
C1708      C1709   1.398       .  A
C1709      C1710   1.400       .  A
C1710      F1711   1.357       .  S
C1715      H1722   1.084       .  S
C1715      C1716   1.399       .  A
C1715      C1720   1.389       .  A
C1716      C1717   1.400       .  A
C1717      C1718   1.388       .  A
C1717      F1724   1.357       .  S
C1718      H1723   1.084       .  S
C1718      C1719   1.401       .  A
C1719      C1720   1.404       .  A
C1720      F1721   1.358       .  S
C1725      H1732   1.084       .  S
C1725      C1726   1.399       .  A
C1725      C1730   1.389       .  A
C1726      C1727   1.401       .  A
C1727      C1728   1.389       .  A
C1727      F1734   1.357       .  S
C1728      H1733   1.083   1_565  S
C1728      C1729   1.403       .  A
C1729      C1730   1.406       .  A
C1730      F1731   1.358       .  S
C1735      H1742   1.084       .  S
C1735      C1736   1.398       .  A
C1735      C1740   1.387       .  A
C1736      C1737   1.400       .  A
C1737      C1738   1.388       .  A
C1737      F1744   1.358       .  S
C1738      H1743   1.084       .  S
C1738      C1739   1.402       .  A
C1739      C1740   1.405       .  A
C1740      F1741   1.358       .  S
C1745      H1752   1.084       .  S
C1745      C1746   1.398       .  A
C1745      C1750   1.387       .  A
C1746      C1747   1.400       .  A
C1747      C1748   1.387       .  A
C1747      F1754   1.357       .  S
C1748      H1753   1.083       .  S
C1748      C1749   1.403       .  A
C1749      C1750   1.407       .  A
C1750      F1751   1.358       .  S
C1755      H1762   1.083   1_545  S
C1755      C1756   1.402       .  A
C1755      C1760   1.387       .  A
C1756      C1757   1.405       .  A
C1757      C1758   1.389       .  A
C1757      F1764   1.358       .  S
C1758      H1763   1.084       .  S
C1758      C1759   1.399       .  A
C1759      C1760   1.401       .  A
C1760      F1761   1.357       .  S
C1765      H1772   1.084       .  S
C1765      C1766   1.398       .  A
C1765      C1770   1.386       .  A
C1766      C1767   1.400       .  A
C1767      C1768   1.390       .  A
C1767      F1774   1.358       .  S
C1768      H1773   1.083       .  S
C1768      C1769   1.403       .  A
C1769      C1770   1.406       .  A
C1770      F1771   1.358       .  S
C1775      H1782   1.084       .  S
C1775      C1776   1.399       .  A
C1775      C1780   1.390       .  A
C1776      C1777   1.399       .  A
C1777      C1778   1.388       .  A
C1777      F1784   1.356       .  S
C1778      H1783   1.084       .  S
C1778      C1779   1.398       .  A
C1779      C1780   1.401       .  A
C1780      F1781   1.357       .  S
C1785      H1792   1.083       .  S
C1785      C1786   1.399       .  A
C1785      C1790   1.389       .  A
C1786      C1787   1.401       .  A
C1787      C1788   1.387       .  A
C1787      F1794   1.358       .  S
C1788      H1793   1.084       .  S
C1788      C1789   1.402       .  A
C1789      C1790   1.405       .  A
C1790      F1791   1.358       .  S
C1795      H1802   1.084       .  S
C1795      C1796   1.399       .  A
C1795      C1800   1.389       .  A
C1796      C1797   1.400       .  A
C1797      C1798   1.388       .  A
C1797      F1804   1.358       .  S
C1798      H1803   1.083       .  S
C1798      C1799   1.403       .  A
C1799      C1800   1.406       .  A
C1800      F1801   1.358       .  S
C1805      H1812   1.084       .  S
C1805      C1806   1.400       .  A
C1805      C1810   1.388       .  A
C1806      C1807   1.402       .  A
C1807      C1808   1.388       .  A
C1807      F1814   1.358       .  S
C1808      H1813   1.083       .  S
C1808      C1809   1.404       .  A
C1809      C1810   1.406       .  A
C1810      F1811   1.358       .  S
C1815      H1822   1.083       .  S
C1815      C1816   1.403       .  A
C1815      C1820   1.387       .  A
C1816      C1817   1.407       .  A
C1817      C1818   1.389       .  A
C1817      F1824   1.358       .  S
C1818      H1823   1.084       .  S
C1818      C1819   1.398       .  A
C1819      C1820   1.400       .  A
C1820      F1821   1.357       .  S
