geometry optimzed in LAMMPS
_audit_creation_date              2020-11-30 
_audit_creation_method            'lammps2cif' 
_symmetry_space_group_name_H-M    'P1' 
_symmetry_Int_Tables_number       1 
_symmetry_cell_setting            triclinic 
loop_ 
_symmetry_equiv_pos_as_xyz 
  x,y,z 
_cell_length_a                    53.21304857 
_cell_length_b                    53.12224814975452 
_cell_length_c                    52.323485953873316 
_cell_angle_alpha                 90.03018070761576 
_cell_angle_beta                  89.77921102475871 
_cell_angle_gamma                 89.39859745924396 
loop_ 
_atom_site_label 
_atom_site_type_symbol 
_atom_site_fract_x 
_atom_site_fract_y 
_atom_site_fract_z 
_atom_site_charge 
O1          O  0.23953798  0.68354569  0.73626872    -0.79400
O2          O  0.23173716  0.80047791  0.77879449    -0.79400
O3          O  0.20374769  0.73955390  0.79225722    -0.79400
O4          O  0.20651620  0.74519235  0.71683371    -0.79400
O5          O  0.22752049  0.76670013  0.81100078    -0.79500
O6          O  0.23533106  0.72070195  0.69946686    -0.79400
O7          O  0.20549034  0.78282987  0.75340080    -0.79400
O8          O  0.20901990  0.69916179  0.75934711    -0.79400
C9          C  0.21883156  0.68048776  0.74797139     1.10300
C10         C  0.21207343  0.80236969  0.76534899     1.10200
C11         C  0.20794892  0.75316675  0.81148395     1.10300
C12         C  0.21405304  0.73213550  0.69810774     1.10200
O13         O  0.28307371  0.74156521  0.71790255    -0.79400
O14         O  0.27830531  0.75548623  0.79950204    -0.79500
O15         O  0.25772392  0.68836482  0.78049774    -0.79400
O16         O  0.25592003  0.79879892  0.73693880    -0.79400
O17         O  0.27937338  0.78507843  0.76812258    -0.79400
O18         O  0.28547963  0.70496265  0.75491047    -0.79400
O19         O  0.25410802  0.76325667  0.69891038    -0.79400
O20         O  0.25315423  0.72728594  0.81490060    -0.79400
Co21       Co  0.26008350  0.71486834  0.72901878     1.51500
Co22       Co  0.25053093  0.76706046  0.77987855     1.51700
Co23       Co  0.23130126  0.71588360  0.78403902     1.51600
Co24       Co  0.23095666  0.76979795  0.72889597     1.51500
O25         O  0.24307416  0.74053388  0.75429553    -1.41300
C26         C  0.27573225  0.75317154  0.69836579     1.10200
C27         C  0.27218439  0.74164111  0.81753597     1.10300
C28         C  0.27909020  0.68725458  0.76960950     1.10300
C29         C  0.27476563  0.80165018  0.75189425     1.10200
O30         O  0.73119595  0.23863315  0.68421542    -0.79400
O31         O  0.76870007  0.24392375  0.79890488    -0.79400
O32         O  0.79034384  0.21329798  0.74226234    -0.79400
O33         O  0.71551192  0.20895219  0.74128722    -0.79400
O34         O  0.80499831  0.24498238  0.76380589    -0.79500
O35         O  0.69570912  0.23717286  0.71866951    -0.79400
O36         O  0.75034481  0.21246366  0.78052953    -0.79400
O37         O  0.75415479  0.21016502  0.70340619    -0.79400
C38         C  0.74187762  0.21716931  0.68396863     1.10300
C39         C  0.75963904  0.22192294  0.80043581     1.10200
C40         C  0.80819135  0.22310205  0.75449744     1.10300
C41         C  0.69646134  0.21529503  0.72847423     1.10200
O42         O  0.71001158  0.28653739  0.73852651    -0.79400
O43         O  0.78455916  0.29087202  0.74160546    -0.79500
O44         O  0.77142580  0.25846749  0.68464101    -0.79400
O45         O  0.72611516  0.25935989  0.79619136    -0.79400
O46         O  0.74623795  0.28966929  0.77757192    -0.79400
O47         O  0.74789853  0.28769628  0.70182701    -0.79400
O48         O  0.69289013  0.25600235  0.75993648    -0.79400
O49         O  0.80514544  0.26156988  0.72086502    -0.79400
Co50       Co  0.72354028  0.26247609  0.71334705     1.51500
Co51       Co  0.77393009  0.26677929  0.76801759     1.51700
Co52       Co  0.77774448  0.23601324  0.71525718     1.51600
Co53       Co  0.72360909  0.23442071  0.76708972     1.51500
O54         O  0.74981194  0.24982790  0.74094057    -1.41300
C55         C  0.69132181  0.27791927  0.75039404     1.10200
C56         C  0.80399018  0.28388133  0.72954282     1.10300
C57         C  0.76073029  0.27988158  0.68304093     1.10300
C58         C  0.73448408  0.28163300  0.79679795     1.10200
O59         O  0.69658127  0.71521652  0.22681066    -0.79400
O60         O  0.79146981  0.74984154  0.21514322    -0.79400
O61         O  0.75300049  0.78558149  0.21094468    -0.79400
O62         O  0.77071632  0.69451544  0.24638285    -0.79400
O63         O  0.78909649  0.80182963  0.22161293    -0.79500
O64         O  0.74787542  0.71240900  0.21643630    -0.79400
O65         O  0.80704337  0.72811545  0.24679669    -0.79400
O66         O  0.71304859  0.74961989  0.21157362    -0.79400
C67         C  0.69362425  0.73546886  0.21414652     1.10300
C68         C  0.80907892  0.73623593  0.22418800     1.10200
C69         C  0.76743833  0.80489496  0.21157480     1.10300
C70         C  0.76208655  0.69462836  0.22383734     1.10200
O71         O  0.72826325  0.69606245  0.26512022    -0.79400
O72         O  0.76907431  0.79807748  0.26887099    -0.79500
O73         O  0.69433971  0.77233815  0.25811338    -0.79400
O74         O  0.79254648  0.74824594  0.29453509    -0.79400
O75         O  0.80722978  0.77172249  0.26295509    -0.79400
O76         O  0.70500855  0.73624490  0.27316139    -0.79400
O77         O  0.75264411  0.71070910  0.29556816    -0.79400
O78         O  0.73162354  0.80784014  0.25685634    -0.79400
Co79       Co  0.72642039  0.72706516  0.24386322     1.51500
Co80       Co  0.77673161  0.77367602  0.24122379     1.51700
Co81       Co  0.72556783  0.77640411  0.23642762     1.51600
Co82       Co  0.77821749  0.72283240  0.27032633     1.51500
O83         O  0.75252104  0.74979385  0.25644676    -1.41300
C84         C  0.73668617  0.69470487  0.28775156     1.10200
C85         C  0.75102807  0.81332424  0.26920055     1.10300
C86         C  0.68956763  0.75402944  0.27252237     1.10300
C87         C  0.80900859  0.76338873  0.28566515     1.10200
C88         C  0.50628736  0.98110353  0.01594975     0.03000
C89         C  0.52491424  0.99999466  0.01463245     0.03000
C90         C  0.52426410  0.01805780  0.99475379     0.03000
C91         C  0.50539990  0.01717238  0.97583950     0.03000
C92         C  0.48669998  0.99848387  0.97714109     0.03000
C93         C  0.48729119  0.98019265  0.99695119     0.03000
C94         C  0.68779422  0.97477756  0.17696902     0.81000
N95         N  0.69053256  0.99517589  0.19244589    -0.77300
C96         C  0.67649491  0.01640561  0.18858885     0.83400
N97         N  0.65972171  0.01708839  0.16903549    -0.77300
C98         C  0.65690069  0.99698968  0.15326523     0.83500
N99         N  0.67101368  0.97597486  0.15745746    -0.79000
C100        C  0.68053305  0.18351999  0.97199482     0.81000
N101        N  0.66347203  0.16458466  0.97193080    -0.77300
C102        C  0.64977072  0.15923693  0.99316102     0.83400
N103        N  0.65338611  0.17292711  0.01462870    -0.77300
C104        C  0.67009013  0.19201907  0.01520296     0.83500
N105        N  0.68362518  0.19747935  0.99370609    -0.79000
C106        C  0.31996456  0.97180030  0.82045456     0.81000
N107        N  0.33822967  0.97274371  0.83850824    -0.77300
C108        C  0.34327075  0.99453815  0.85091431     0.83400
N109        N  0.32938411  0.01541765  0.84555434    -0.77300
C110        C  0.31078029  0.01489713  0.82781310     0.83500
N111        N  0.30627275  0.99301671  0.81493915    -0.79000
C112        C  0.52991700  0.16515958  0.79819116     0.81000
N113        N  0.52922187  0.14610367  0.81560950    -0.77300
C114        C  0.50842882  0.14236540  0.83026416     0.83400
N115        N  0.48837120  0.15809695  0.82750866    -0.77300
C116        C  0.48866313  0.17734104  0.81039782     0.83500
N117        N  0.50956587  0.18081895  0.79575910    -0.79000
C118        C  0.52561889  0.81920578  0.18120174     0.81000
N119        N  0.52652973  0.83852723  0.16420404    -0.77300
C120        C  0.50666145  0.85438176  0.16099678     0.83400
N121        N  0.48534535  0.85063632  0.17470997    -0.77300
C122        C  0.48364680  0.83112626  0.19149917     0.83500
N123        N  0.50396993  0.81545436  0.19473170    -0.79000
C124        C  0.31847208  0.82926582  0.02596354     0.81000
N125        N  0.33808202  0.84540222  0.02482163    -0.77300
C126        C  0.35260572  0.84722033  0.00352381     0.83400
N127        N  0.34726379  0.83251491  0.98303957    -0.77300
C128        C  0.32765669  0.81629285  0.98373273     0.83500
N129        N  0.31327616  0.81479133  0.00524595    -0.79000
C130        C  0.01574391  0.50388265  0.99865154     0.03000
C131        C  0.01330446  0.48570231  0.97911365     0.03000
C132        C  0.99282537  0.46897408  0.97916763     0.03000
C133        C  0.97544701  0.46964521  0.99963688     0.03000
C134        C  0.97793614  0.48771598  0.01932370     0.03000
C135        C  0.99790314  0.50508062  0.01863897     0.03000
C136        C  0.17085063  0.66984387  0.97717071     0.81000
N137        N  0.15438496  0.65046752  0.97694530    -0.77300
C138        C  0.15164406  0.63534869  0.99768493     0.83400
N139        N  0.16543715  0.63994751  0.01897449    -0.77300
C140        C  0.18205015  0.65923342  0.01947575     0.83500
N141        N  0.18469685  0.67407023  0.99846929    -0.79000
C142        C  0.17884235  0.50763370  0.81896412     0.81000
N143        N  0.19232197  0.48594894  0.81478000    -0.77300
C144        C  0.18618700  0.46447537  0.82759486     0.83400
N145        N  0.16706069  0.46496916  0.84473625    -0.77300
C146        C  0.15385148  0.48638332  0.84950109     0.83500
N147        N  0.15970458  0.50759093  0.83634226    -0.79000
C148        C  0.02465962  0.67332612  0.17709991     0.81000
N149        N  0.00313466  0.68739403  0.18017061    -0.77300
C150        C  0.98171526  0.68127214  0.16726910     0.83400
N151        N  0.98227111  0.66108594  0.15132229    -0.77300
C152        C  0.00340051  0.64695622  0.14793010     0.83500
N153        N  0.02447137  0.65323438  0.16092042    -0.79000
C154        C  0.82358372  0.47847684  0.19291665     0.81000
N155        N  0.80986267  0.50017781  0.19553938    -0.77300
C156        C  0.81537186  0.52063843  0.18086990     0.83400
N157        N  0.83443172  0.51898486  0.16357394    -0.77300
C158        C  0.84809668  0.49751333  0.16064269     0.83500
N159        N  0.84252758  0.47738365  0.17543815    -0.79000
C160        C  0.01306261  0.32018942  0.80435142     0.81000
N161        N  0.01102037  0.33749845  0.82338644    -0.77300
C162        C  0.98995025  0.35181688  0.82648383     0.83400
N163        N  0.97055333  0.34864824  0.81007031    -0.77300
C164        C  0.97200195  0.33143300  0.79080162     0.83500
N165        N  0.99340236  0.31717646  0.78794191    -0.79000
C166        C  0.81704538  0.30518087  0.00962224     0.81000
N167        N  0.83479606  0.32328884  0.01125260    -0.77300
C168        C  0.84021281  0.33831157  0.99108433     0.83400
N169        N  0.82781954  0.33482466  0.96875022    -0.77300
C170        C  0.80978370  0.31702109  0.96670286     0.83500
N171        N  0.80413375  0.30236520  0.98733718    -0.79000
C172        C  0.49433097  0.47411658  0.52339153     0.03000
C173        C  0.51370628  0.47383772  0.50479479     0.03000
C174        C  0.51483518  0.49295727  0.48602212     0.03000
C175        C  0.49649817  0.51239954  0.48574452     0.03000
C176        C  0.47707218  0.51284114  0.50430693     0.03000
C177        C  0.47613845  0.49381614  0.52332067     0.03000
C178        C  0.51752632  0.31456075  0.69026689     0.81000
N179        N  0.51644125  0.33277566  0.67205763    -0.77300
C180        C  0.49579609  0.33590595  0.65720065     0.83400
N181        N  0.47587798  0.32051700  0.66090114    -0.77300
C182        C  0.47631534  0.30227482  0.67916898     0.83500
N183        N  0.49732735  0.29928421  0.69382563    -0.79000
C184        C  0.31435113  0.67623847  0.48350499     0.81000
N185        N  0.33188123  0.65746743  0.48343834    -0.77300
C186        C  0.34552957  0.65194082  0.50456326     0.83400
N187        N  0.34108500  0.66526621  0.52632570    -0.77300
C188        C  0.32371748  0.68424957  0.52688090     0.83500
N189        N  0.31044920  0.68988948  0.50530820    -0.79000
C190        C  0.68261422  0.52098384  0.33006453     0.81000
N191        N  0.66573032  0.51815758  0.34931888    -0.77300
C192        C  0.65228956  0.49677448  0.35193343     0.83400
N193        N  0.65594626  0.47785088  0.33481034    -0.77300
C194        C  0.67288911  0.48000666  0.31537967     0.83500
N195        N  0.68615193  0.50180648  0.31292444    -0.79000
C196        C  0.48537899  0.66238153  0.31413192     0.81000
N197        N  0.48753283  0.64531389  0.33321458    -0.77300
C198        C  0.50873584  0.64307168  0.34720153     0.83400
N199        N  0.52840760  0.65841849  0.34218688    -0.77300
C200        C  0.52680405  0.67598430  0.32319874     0.83500
N201        N  0.50514571  0.67791589  0.30922160    -0.79000
C202        C  0.33241282  0.51891993  0.70422273     0.81000
N203        N  0.34893520  0.51848013  0.68430015    -0.77300
C204        C  0.35011822  0.49857315  0.66812348     0.83400
N205        N  0.33465952  0.47885587  0.67184838    -0.77300
C206        C  0.31836251  0.47847574  0.69187117     0.83500
N207        N  0.31724312  0.49860997  0.70818170    -0.79000
C208        C  0.69472235  0.33098329  0.51224848     0.81000
N209        N  0.69586841  0.31642110  0.49080996    -0.77300
C210        C  0.67845821  0.31926493  0.47197916     0.83400
N211        N  0.65968222  0.33650945  0.47498727    -0.77300
C212        C  0.65857129  0.35133620  0.49609398     0.83500
N213        N  0.67614664  0.34858792  0.51461872    -0.79000
C214        C  0.01865143  0.00035507  0.52045993     0.03000
C215        C  0.01842720  0.98017295  0.50264054     0.03000
C216        C  0.99988477  0.97993095  0.48309535     0.03000
C217        C  0.98198278  0.99978069  0.48115351     0.03000
C218        C  0.98234689  0.01982825  0.49891630     0.03000
C219        C  0.00054618  0.02008691  0.51856969     0.03000
C220        C  0.97901412  0.18175446  0.68311300     0.81000
N221        N  0.97950626  0.16332019  0.66508236    -0.77300
C222        C  0.00071821  0.15805397  0.65163254     0.83400
N223        N  0.02152236  0.17187956  0.65589445    -0.77300
C224        C  0.02158613  0.19068425  0.67354487     0.83500
N225        N  0.00023821  0.19544069  0.68747923    -0.79000
C226        C  0.18243216  0.01744622  0.68327454     0.81000
N227        N  0.18603832  0.99584762  0.69696301    -0.77300
C228        C  0.17164254  0.97520986  0.69234803     0.83400
N229        N  0.15345334  0.97665924  0.67412869    -0.77300
C230        C  0.14965917  0.99808460  0.66040121     0.83500
N231        N  0.16428913  0.01828774  0.66512090    -0.79000
C232        C  0.16660260  0.80210222  0.52563823     0.81000
N233        N  0.14853568  0.82042740  0.52526326    -0.77300
C234        C  0.14492221  0.83489488  0.50418413     0.83400
N235        N  0.15933859  0.83063551  0.48306944    -0.77300
C236        C  0.17723530  0.81207879  0.48264639     0.83500
N237        N  0.18098425  0.79803735  0.50424658    -0.79000
C238        C  0.80992129  0.17226468  0.51194907     0.81000
N239        N  0.82906163  0.15506167  0.51215174    -0.77300
C240        C  0.84401164  0.15154084  0.49128400     0.83400
N241        N  0.83970212  0.16561279  0.47007023    -0.77300
C242        C  0.82068626  0.18287522  0.46946651     0.83500
N243        N  0.80585752  0.18616390  0.49049232    -0.79000
C244        C  0.81334157  0.98469220  0.32163055     0.81000
N245        N  0.83048195  0.98386455  0.34089966    -0.77300
C246        C  0.84448011  0.00428786  0.34690129     0.83400
N247        N  0.84105762  0.02589387  0.33339224    -0.77300
C248        C  0.82410560  0.02736500  0.31401384     0.83500
N249        N  0.81022174  0.00659340  0.30818553    -0.79000
C250        C  0.98532907  0.80632064  0.33254243     0.81000
N251        N  0.98642859  0.82349314  0.35162421    -0.77300
C252        C  0.00734542  0.83716533  0.35575007     0.83400
N253        N  0.02768898  0.83337203  0.34038551    -0.77300
C254        C  0.02725305  0.81601810  0.32118536     0.83500
N255        N  0.00580697  0.80265717  0.31711349    -0.79000
O256        O  0.27123253  0.18285188  0.74994265    -0.79400
O257        O  0.24408484  0.29306593  0.73219572    -0.79400
O258        O  0.19723102  0.21130092  0.73565570    -0.79400
O259        O  0.28957231  0.24175335  0.71634638    -0.79400
O260        O  0.21304975  0.24678679  0.72040959    -0.79500
O261        O  0.30953700  0.21653525  0.74295563    -0.79400
O262        O  0.28598788  0.29282109  0.72387177    -0.79400
O263        O  0.24593834  0.20266975  0.72373809    -0.79400
C264        C  0.25779432  0.18288000  0.73004642     1.10300
C265        C  0.26434676  0.30340636  0.72230505     1.10200
C266        C  0.19562525  0.22955781  0.72015280     1.10300
C267        C  0.30889328  0.22858557  0.72187062     1.10200
O268        O  0.29913460  0.23794538  0.79201031    -0.79400
O269        O  0.19748973  0.27783056  0.75669468    -0.79500
O270        O  0.22812900  0.19214681  0.77414700    -0.79400
O271        O  0.27322667  0.29054773  0.77191547    -0.79400
O272        O  0.23741825  0.27841202  0.78646806    -0.79400
O273        O  0.25949181  0.20391445  0.79837983    -0.79400
O274        O  0.31272778  0.26189049  0.76082144    -0.79400
O275        O  0.20271195  0.24089656  0.77612755    -0.79400
Co276      Co  0.28358060  0.21163895  0.77083119     1.51500
Co277      Co  0.22926548  0.26205202  0.75373266     1.51700
Co278      Co  0.22728970  0.22221198  0.75032076     1.51600
Co279      Co  0.27855998  0.26502201  0.74379910     1.51500
O280        O  0.25930512  0.23878475  0.75938815    -1.41300
C281        C  0.31688099  0.25004199  0.78165267     1.10200
C282        C  0.18912012  0.26108645  0.77178011     1.10300
C283        C  0.24283440  0.18791552  0.79290792     1.10300
C284        C  0.25499370  0.29383160  0.78694665     1.10200
O285        O  0.77557552  0.21414342  0.26331135    -0.79400
O286        O  0.78142112  0.29052339  0.24022193    -0.79400
O287        O  0.75169751  0.23069363  0.18698624    -0.79400
O288        O  0.75283502  0.26702556  0.29815264    -0.79400
O289        O  0.77997299  0.25462736  0.20302346    -0.79500
O290        O  0.77018025  0.23145761  0.28348966    -0.79400
O291        O  0.75387150  0.30723167  0.26643430    -0.79400
O292        O  0.76070757  0.19895613  0.22776418    -0.79400
C293        C  0.77709166  0.19778953  0.24562928     1.10300
C294        C  0.77475006  0.30840720  0.25461640     1.10200
C295        C  0.77214691  0.24212131  0.18434499     1.10300
C296        C  0.76914077  0.24931779  0.30003964     1.10200
O297        O  0.72496637  0.22802578  0.29692492    -0.79400
O298        O  0.72987520  0.27270027  0.18886647    -0.79500
O299        O  0.70836150  0.20603921  0.24430150    -0.79400
O300        O  0.70472051  0.29404531  0.24680785    -0.79400
O301        O  0.73371335  0.31103430  0.22343027    -0.79400
O302        O  0.73394940  0.18938713  0.27252365    -0.79400
O303        O  0.70117661  0.25630924  0.28101681    -0.79400
O304        O  0.70394312  0.24511707  0.20605975    -0.79400
Co305      Co  0.73999417  0.22357216  0.26205722     1.51500
Co306      Co  0.75575242  0.28016939  0.21572351     1.51700
Co307      Co  0.73178885  0.22370370  0.21886809     1.51600
Co308      Co  0.72863508  0.27919850  0.27109500     1.51500
O309        O  0.74240695  0.25520384  0.24293812    -1.41300
C310        C  0.70647937  0.24258522  0.29977036     1.10200
C311        C  0.70968225  0.25996875  0.18795851     1.10300
C312        C  0.71546438  0.18671753  0.25754885     1.10300
C313        C  0.71281954  0.31298582  0.23515882     1.10200
O314        O  0.29565204  0.70501538  0.24595879    -0.79400
O315        O  0.19597081  0.73875329  0.26893954    -0.79400
O316        O  0.26922186  0.72452999  0.29752056    -0.79400
O317        O  0.23362944  0.74008998  0.19359046    -0.79400
O318        O  0.23124934  0.73604243  0.30636111    -0.79500
O319        O  0.25718496  0.70829752  0.20626265    -0.79400
O320        O  0.20858686  0.72712051  0.23182648    -0.79400
O321        O  0.30890718  0.73315823  0.27407374    -0.79400
C322        C  0.31138240  0.71183939  0.26307510     1.10300
C323        C  0.19233068  0.72618101  0.24896622     1.10200
C324        C  0.25027688  0.72293719  0.31155708     1.10300
C325        C  0.24163525  0.71777791  0.19039283     1.10200
O326        O  0.27513133  0.75872828  0.19611923    -0.79400
O327        O  0.25279703  0.78319267  0.29081449    -0.79500
O328        O  0.29328339  0.78256354  0.25652214    -0.79400
O329        O  0.19994015  0.77477282  0.21515468    -0.79400
O330        O  0.21495510  0.78650955  0.25197157    -0.79400
O331        O  0.30996413  0.75364530  0.23182248    -0.79400
O332        O  0.25096351  0.78564854  0.21686624    -0.79400
O333        O  0.28743231  0.77050258  0.30904798    -0.79400
Co334      Co  0.28191306  0.73163175  0.22234498     1.51500
Co335      Co  0.22648557  0.75942048  0.27698596     1.51700
Co336      Co  0.27788856  0.75438098  0.27695234     1.51600
Co337      Co  0.22961815  0.75702454  0.22709514     1.51500
O338        O  0.25506605  0.74239238  0.24979490    -1.41300
C339        C  0.26536364  0.78059019  0.19826270     1.10200
C340        C  0.26556189  0.78047101  0.31150225     1.10300
C341        C  0.31052933  0.77554742  0.24107212     1.10300
C342        C  0.19603251  0.78512795  0.23674545     1.10200
C343        C  0.07890800  0.78573801  0.28003013    -0.27500
C344        C  0.09611031  0.80556684  0.27784117     0.06200
C345        C  0.08943288  0.82918421  0.28813757     0.25800
C346        C  0.06685761  0.83242323  0.30161737    -0.11900
C347        C  0.05006878  0.81237399  0.30484561    -0.25900
C348        C  0.05610444  0.78903412  0.29338646     0.36600
C349        C  0.12156100  0.80129140  0.26638454     0.06200
F350        F  0.10485541  0.84918946  0.28525455    -0.19700
H351        H  0.06258051  0.85074201  0.30973267     0.16000
F352        F  0.04068110  0.76903715  0.29621126    -0.23400
H353        H  0.08357074  0.76739674  0.27223004     0.17800
C354        C  0.14324741  0.80789459  0.28005892     0.25800
C355        C  0.16717410  0.80371558  0.26965280    -0.11900
C356        C  0.17028928  0.79251926  0.24550369    -0.25900
C357        C  0.14857563  0.78590328  0.23169073     0.36700
C358        C  0.12450464  0.79019829  0.24212590    -0.27600
F359        F  0.14137274  0.81740881  0.30408030    -0.19700
H360        H  0.18338401  0.80867055  0.28093750     0.16000
F361        F  0.15051891  0.77455419  0.20850775    -0.23400
H362        H  0.10812870  0.78476336  0.23129044     0.17800
C363        C  0.83642049  0.09327837  0.28752903    -0.27500
C364        C  0.81338556  0.09958947  0.27599415     0.06200
C365        C  0.79431424  0.08129588  0.27587124     0.25800
C366        C  0.79811692  0.05766854  0.28747310    -0.11900
C367        C  0.82086061  0.05170925  0.29980612    -0.25900
C368        C  0.84014426  0.06981544  0.29934866     0.36600
C369        C  0.80880034  0.12555231  0.26545779     0.06200
F370        F  0.77148507  0.08666113  0.26563363    -0.19700
H371        H  0.78286032  0.04433570  0.28756708     0.16000
F372        F  0.86278445  0.06490966  0.31023911    -0.23400
H373        H  0.85163363  0.10666097  0.28755118     0.17800
C374        C  0.81467085  0.14717190  0.27980776     0.25800
C375        C  0.80681756  0.17109672  0.27158442    -0.11900
C376        C  0.79279235  0.17441121  0.24912276    -0.25900
C377        C  0.78917013  0.15305304  0.23349308     0.36700
C378        C  0.79700505  0.12901609  0.24167168    -0.27600
F379        F  0.82614652  0.14506162  0.30283981    -0.19700
H380        H  0.81026552  0.18712366  0.28408553     0.16000
F381        F  0.77650260  0.15500440  0.21111013    -0.23400
H382        H  0.79296280  0.11288016  0.22974398     0.17800
C383        C  0.78730260  0.21688819  0.41542697    -0.27500
C384        C  0.80726584  0.22165540  0.39844891     0.06200
C385        C  0.83184613  0.21502033  0.40584996     0.25800
C386        C  0.83606358  0.20273566  0.42911588    -0.11900
C387        C  0.81600629  0.19738672  0.44575813    -0.25900
C388        C  0.79157120  0.20504742  0.43889396     0.36600
C389        C  0.80177514  0.23237449  0.37277510     0.06200
F390        F  0.85182418  0.22059158  0.39075392    -0.19700
H391        H  0.85511410  0.19741170  0.43415846     0.16000
F392        F  0.77160610  0.19998954  0.45420822    -0.23400
H393        H  0.76816333  0.22162801  0.41015590     0.17800
C394        C  0.81147431  0.22114500  0.35035865     0.25800
C395        C  0.80272368  0.22882050  0.32642109    -0.11900
C396        C  0.78364705  0.24704116  0.32416130    -0.25900
C397        C  0.77542731  0.25967022  0.34650068     0.36700
C398        C  0.78450006  0.25238205  0.37042916    -0.27600
F399        F  0.82770473  0.20131366  0.35157253    -0.19700
H400        H  0.80998144  0.21932195  0.30941785     0.16000
F401        F  0.75718307  0.27770542  0.34562660    -0.23400
H402        H  0.77702394  0.26160843  0.38735163     0.17800
C403        C  0.22068295  0.78220891  0.43163913    -0.27500
C404        C  0.21826352  0.79933000  0.41120231     0.06200
C405        C  0.20290500  0.82080532  0.41491790     0.25800
C406        C  0.19012743  0.82474601  0.43809854    -0.11900
C407        C  0.19216108  0.80753576  0.45851452    -0.25900
C408        C  0.20786482  0.78617549  0.45497573     0.36600
C409        C  0.23090842  0.79452228  0.38584701     0.06200
F410        F  0.20045918  0.83834439  0.39620578    -0.19700
H411        H  0.17851202  0.84150836  0.43996361     0.16000
F412        F  0.21045869  0.76873412  0.47373896    -0.23400
H413        H  0.23208929  0.76535329  0.42935781     0.17800
C414        C  0.25643242  0.78721052  0.38393004     0.25800
C415        C  0.26777963  0.78308936  0.35986286    -0.11900
C416        C  0.25406744  0.78629309  0.33709502    -0.25900
C417        C  0.22854235  0.79356061  0.33912881     0.36700
C418        C  0.21723936  0.79745394  0.36307237    -0.27600
F419        F  0.27061388  0.78459625  0.40527648    -0.19700
H420        H  0.28734190  0.77731285  0.35907091     0.16000
F421        F  0.21413427  0.79645035  0.31798253    -0.23400
H422        H  0.19747955  0.80250611  0.36377606     0.17800
C423        C  0.21625450  0.07917436  0.67248752    -0.27500
C424        C  0.22325844  0.08584027  0.69740630     0.06200
C425        C  0.21750049  0.06925570  0.71762613     0.25800
C426        C  0.20515938  0.04654807  0.71283514    -0.11900
C427        C  0.19769854  0.04021407  0.68796991    -0.25900
C428        C  0.20353705  0.05674117  0.66777724     0.36600
C429        C  0.23520104  0.11063889  0.70232952     0.06200
F430        F  0.22256968  0.07556215  0.74220073    -0.19700
H431        H  0.20048597  0.03440666  0.72874670     0.16000
F432        F  0.19710113  0.05116958  0.64336131    -0.23400
H433        H  0.22052018  0.09147233  0.65658149     0.17800
C434        C  0.25596241  0.11269294  0.71872212     0.25800
C435        C  0.26453043  0.13637291  0.72617492    -0.11900
C436        C  0.25306860  0.15855370  0.71692313    -0.25900
C437        C  0.23435724  0.15642277  0.69814294     0.36700
C438        C  0.22524274  0.13271887  0.69127537    -0.27600
F439        F  0.26773976  0.09181045  0.72788462    -0.19700
H440        H  0.27948555  0.13727527  0.74011953     0.16000
F441        F  0.22415223  0.17723253  0.68718118    -0.23400
H442        H  0.20967621  0.13171776  0.67805420     0.17800
C443        C  0.13778841  0.20778131  0.68608230    -0.27500
C444        C  0.12141232  0.22839451  0.68934184     0.06200
C445        C  0.13110302  0.25100196  0.69911842     0.25800
C446        C  0.15660263  0.25243139  0.70622411    -0.11900
C447        C  0.17258216  0.23117507  0.70429317    -0.25900
C448        C  0.16281863  0.20895913  0.69377827     0.36600
C449        C  0.09419901  0.22476945  0.68389096     0.06200
F450        F  0.11580227  0.27133175  0.70254696    -0.19700
H451        H  0.16327966  0.26947643  0.71516940     0.16000
F452        F  0.17689849  0.18759188  0.69284462    -0.23400
H453        H  0.13073437  0.19005309  0.67897318     0.17800
C454        C  0.08692409  0.21503797  0.66012453     0.25800
C455        C  0.06282578  0.20547217  0.65672173    -0.11900
C456        C  0.04519885  0.20529946  0.67687231    -0.25900
C457        C  0.05168336  0.21708750  0.70005552     0.36700
C458        C  0.07606540  0.22663841  0.70351323    -0.27600
F459        F  0.10366057  0.21353144  0.64051707    -0.19700
H460        H  0.05831715  0.19720621  0.63839702     0.16000
F461        F  0.03523086  0.21777221  0.71992691    -0.23400
H462        H  0.08127754  0.23395535  0.72205732     0.17800
C463        C  0.00629328  0.94193771  0.42210574    -0.27500
C464        C  0.00107907  0.91748474  0.43071147     0.06200
C465        C  0.99445396  0.91387393  0.45654302     0.25800
C466        C  0.99332067  0.93436916  0.47329984    -0.11900
C467        C  0.99908299  0.95864448  0.46470395    -0.25900
C468        C  0.00540999  0.96232831  0.43891617     0.36600
C469        C  0.00329333  0.89601364  0.41264112     0.06200
F470        F  0.99012622  0.89047535  0.46586384    -0.19700
H471        H  0.98857612  0.93125897  0.49319276     0.16000
F472        F  0.01185265  0.98546732  0.43027776    -0.23400
H473        H  0.01134384  0.94521395  0.40232052     0.17800
C474        C  0.98402401  0.87829184  0.41037497     0.25800
C475        C  0.98597101  0.85891381  0.39241238    -0.11900
C476        C  0.00696155  0.85686424  0.37599613    -0.25900
C477        C  0.02640614  0.87449403  0.37851790     0.36700
C478        C  0.02452075  0.89376664  0.39669029    -0.27600
F479        F  0.96274501  0.88031268  0.42465816    -0.19700
H480        H  0.97059617  0.84579590  0.39103864     0.16000
F481        F  0.04696067  0.87365314  0.36309988    -0.23400
H482        H  0.03965230  0.90716796  0.39816774     0.17800
C483        C  0.89252330  0.97912529  0.39492166    -0.27500
C484        C  0.90190279  0.00142251  0.40558907     0.06200
C485        C  0.89168651  0.02458646  0.39729668     0.25800
C486        C  0.87301525  0.02530846  0.37845912    -0.11900
C487        C  0.86375970  0.00301226  0.36758744    -0.25900
C488        C  0.87362239  0.97980941  0.37630765     0.36600
C489        C  0.92265395  0.00044566  0.42478891     0.06200
F490        F  0.89943968  0.04658829  0.40769464    -0.19700
H491        H  0.86568808  0.04345539  0.37247023     0.16000
F492        F  0.86567093  0.95770801  0.36633076    -0.23400
H493        H  0.90025228  0.96104605  0.40059572     0.17800
C494        C  0.92209403  0.98353202  0.44556765     0.25800
C495        C  0.94166893  0.98301117  0.46344144    -0.11900
C496        C  0.96210737  0.99931619  0.46104854    -0.25900
C497        C  0.96290608  0.01596877  0.44021343     0.36700
C498        C  0.94344324  0.01643571  0.42227491    -0.27600
F499        F  0.90224704  0.96807081  0.44911289    -0.19700
H500        H  0.94066819  0.97021046  0.47951172     0.16000
F501        F  0.98262090  0.03169360  0.43715532    -0.23400
H502        H  0.94473334  0.02923277  0.40623441     0.17800
C503        C  0.94827405  0.08152979  0.48460151    -0.27500
C504        C  0.92420213  0.07670852  0.49446622     0.06200
C505        C  0.91940699  0.05314728  0.50558595     0.25800
C506        C  0.93843624  0.03487915  0.50703953    -0.11900
C507        C  0.96259839  0.03985162  0.49768103    -0.25900
C508        C  0.96744657  0.06331409  0.48638512     0.36600
C509        C  0.90418770  0.09631158  0.49353209     0.06200
F510        F  0.89616100  0.04767963  0.51463744    -0.19700
H511        H  0.93435371  0.01673931  0.51544808     0.16000
F512        F  0.99058738  0.06842406  0.47683850    -0.23400
H513        H  0.95227276  0.09953804  0.47587125     0.17800
C514        C  0.89297980  0.10523988  0.51617756     0.25800
C515        C  0.87350623  0.12310726  0.51526402    -0.11900
C516        C  0.86482611  0.13257433  0.49175354    -0.25900
C517        C  0.87626414  0.12366717  0.46902124     0.36700
C518        C  0.89581946  0.10580663  0.47001061    -0.27600
F519        F  0.90117272  0.09692191  0.53924486    -0.19700
H520        H  0.86534688  0.12967542  0.53308211     0.16000
F521        F  0.86822718  0.13165330  0.44577773    -0.23400
H522        H  0.90413607  0.09898881  0.45235287     0.17800
C523        C  0.98286845  0.06016490  0.57597140    -0.27500
C524        C  0.00087510  0.07930544  0.57483996     0.06200
C525        C  0.01871704  0.07894017  0.55487176     0.25800
C526        C  0.01838730  0.05981136  0.53645914    -0.11900
C527        C  0.00029216  0.04084499  0.53764295    -0.25900
C528        C  0.98251419  0.04113797  0.55753170     0.36600
C529        C  0.00086912  0.09948768  0.59452275     0.06200
F530        F  0.03611785  0.09734220  0.55286693    -0.19700
H531        H  0.03224579  0.05973840  0.52124106     0.16000
F532        F  0.96527347  0.02258600  0.55947844    -0.23400
H533        H  0.96924776  0.05976092  0.59139531     0.17800
C534        C  0.97856009  0.11253212  0.60089858     0.25800
C535        C  0.97863609  0.13131398  0.61963554    -0.11900
C536        C  0.00097025  0.13773806  0.63218302    -0.25900
C537        C  0.02330667  0.12464816  0.62584631     0.36700
C538        C  0.02316090  0.10566701  0.60727678    -0.27600
F539        F  0.95678912  0.10759913  0.58851240    -0.19700
H540        H  0.96123173  0.14120227  0.62398229     0.16000
F541        F  0.04516598  0.12969356  0.63802530    -0.23400
H542        H  0.04046550  0.09555393  0.60305503     0.17800
C543        C  0.11100528  0.01927597  0.60291716    -0.27500
C544        C  0.09221581  0.00094522  0.60214842     0.06200
C545        C  0.09238556  0.98177036  0.62070751     0.25800
C546        C  0.11099478  0.98103846  0.63954196    -0.11900
C547        C  0.12986221  0.99936661  0.64036964    -0.25900
C548        C  0.12959135  0.01862057  0.62176376     0.36600
C549        C  0.07318007  0.00142794  0.58139332     0.06200
F550        F  0.07506684  0.96320540  0.62015857    -0.19700
H551        H  0.11063384  0.96597951  0.65347784     0.16000
F552        F  0.14753716  0.03657890  0.62128267    -0.23400
H553        H  0.11129520  0.03419871  0.58881898     0.17800
C554        C  0.04736586  0.99926859  0.58683104     0.25800
C555        C  0.02986904  0.99855606  0.56696882    -0.11900
C556        C  0.03761938  0.00080259  0.54139215    -0.25900
C557        C  0.06329173  0.00379085  0.53595983     0.36700
C558        C  0.08088293  0.00392827  0.55578136    -0.27600
F559        F  0.03899185  0.99841528  0.61134928    -0.19700
H560        H  0.01016161  0.99632426  0.57154348     0.16000
F561        F  0.07130943  0.00664841  0.51149191    -0.23400
H562        H  0.10062458  0.00574770  0.55110143     0.17800
C563        C  0.07072145  0.93377697  0.48468745    -0.27500
C564        C  0.07183316  0.91769677  0.50608186     0.06200
C565        C  0.05576410  0.92317223  0.52700274     0.25800
C566        C  0.03848722  0.94333775  0.52580899    -0.11900
C567        C  0.03748470  0.95916218  0.50430471    -0.25900
C568        C  0.05432252  0.95451763  0.48405506     0.36600
C569        C  0.09043425  0.89614402  0.50632374     0.06200
F570        F  0.05723133  0.90973608  0.54899626    -0.19700
H571        H  0.02592873  0.94672314  0.54180749     0.16000
F572        F  0.05506182  0.97021897  0.46363552    -0.23400
H573        H  0.08264883  0.93035976  0.46821908     0.17800
C574        C  0.08461979  0.87228555  0.51663244     0.25800
C575        C  0.10249937  0.85260681  0.51624528    -0.11900
C576        C  0.12610612  0.85579114  0.50461762    -0.25900
C577        C  0.13173071  0.87927426  0.49380859     0.36700
C578        C  0.11433967  0.89920697  0.49509026    -0.27600
F579        F  0.06139060  0.86746368  0.52609252    -0.19700
H580        H  0.09761382  0.83456719  0.52441563     0.16000
F581        F  0.15440714  0.88325423  0.48264145    -0.23400
H582        H  0.11976697  0.91722817  0.48729033     0.17800
C583        C  0.65993417  0.28485785  0.41115324    -0.27500
C584        C  0.68346932  0.27722171  0.40144553     0.06200
C585        C  0.70518321  0.28289380  0.41559765     0.25800
C586        C  0.70329318  0.29574891  0.43888627    -0.11900
C587        C  0.67984981  0.30384939  0.44832219    -0.25900
C588        C  0.65807303  0.29808937  0.43427910     0.36600
C589        C  0.68555351  0.26506535  0.37581888     0.06200
F590        F  0.72840577  0.27728942  0.40626361    -0.19700
H591        H  0.72035390  0.30027209  0.44905853     0.16000
F592        F  0.63494367  0.30509799  0.44291805    -0.23400
H593        H  0.64294737  0.28074178  0.40067757     0.17800
C594        C  0.70125789  0.24393671  0.37181394     0.25800
C595        C  0.70640743  0.23542282  0.34700583    -0.11900
C596        C  0.69582765  0.24757316  0.32564175    -0.25900
C597        C  0.67820324  0.26715064  0.32983718     0.36700
C598        C  0.67322361  0.27579541  0.35467912    -0.27600
F599        F  0.71224473  0.23195612  0.39184460    -0.19700
H600        H  0.71979067  0.22010642  0.34450101     0.16000
F601        F  0.66688716  0.27899021  0.30992350    -0.23400
H602        H  0.66076547  0.29186109  0.35723665     0.17800
C603        C  0.28593821  0.42195428  0.72159688    -0.27500
C604        C  0.28017563  0.40779896  0.69966475     0.06200
C605        C  0.28402393  0.41866405  0.67550899     0.25800
C606        C  0.29513840  0.44230008  0.67336344    -0.11900
C607        C  0.30246390  0.45583483  0.69519525    -0.25900
C608        C  0.29697160  0.44580146  0.71944453     0.36600
C609        C  0.27286516  0.38090623  0.70203998     0.06200
F610        F  0.27774139  0.40605733  0.65391438    -0.19700
H611        H  0.29877247  0.44972288  0.65443983     0.16000
F612        F  0.30397056  0.45806927  0.74098165    -0.23400
H613        H  0.28319232  0.41392558  0.74041720     0.17800
C614        C  0.28725517  0.36202886  0.68980360     0.25800
C615        C  0.28264661  0.33663122  0.69464588    -0.11900
C616        C  0.26367420  0.32934933  0.71181184    -0.25900
C617        C  0.24818935  0.34813931  0.72279668     0.36700
C618        C  0.25295742  0.37369560  0.71811061    -0.27600
F619        F  0.30715540  0.36809844  0.67478229    -0.19700
H620        H  0.29502755  0.32261186  0.68613218     0.16000
F621        F  0.22991412  0.34197768  0.73976559    -0.23400
H622        H  0.24166061  0.38790638  0.72774767     0.17800
C623        C  0.41713072  0.65139948  0.29557117    -0.27500
C624        C  0.41127816  0.67334528  0.28201353     0.06200
C625        C  0.43051991  0.69055757  0.27667498     0.25800
C626        C  0.45499341  0.68635395  0.28589485    -0.11900
C627        C  0.46065432  0.66499486  0.30078500    -0.25900
C628        C  0.44146238  0.64707549  0.30472841     0.36600
C629        C  0.38454972  0.68006676  0.27736754     0.06200
F630        F  0.42528947  0.71211388  0.26375798    -0.19700
H631        H  0.46916524  0.70043442  0.28240315     0.16000
F632        F  0.44575260  0.62567610  0.31827737    -0.23400
H633        H  0.40250346  0.63804230  0.30002432     0.17800
C634        C  0.37245772  0.67493557  0.25409769     0.25800
C635        C  0.34758950  0.68339023  0.24997677    -0.11900
C636        C  0.33457199  0.69705255  0.26904743    -0.25900
C637        C  0.34643470  0.70066681  0.29283235     0.36700
C638        C  0.37106079  0.69227809  0.29682998    -0.27600
F639        F  0.38495149  0.66252854  0.23517657    -0.19700
H640        H  0.33910064  0.68055521  0.23143455     0.16000
F641        F  0.33457735  0.71335426  0.31200194    -0.23400
H642        H  0.37996212  0.69601581  0.31501479     0.17800
C643        C  0.70327286  0.42984959  0.27253525    -0.27500
C644        C  0.68315664  0.41322532  0.26867030     0.06200
C645        C  0.65929605  0.42020934  0.27824052     0.25800
C646        C  0.65609440  0.44233819  0.29253481    -0.11900
C647        C  0.67639906  0.45840074  0.29738248    -0.25900
C648        C  0.69995890  0.45226555  0.28656006     0.36600
C649        C  0.68769085  0.38769054  0.25715387     0.06200
F650        F  0.63903962  0.40544917  0.27409969    -0.19700
H651        H  0.63763262  0.44672937  0.30022533     0.16000
F652        F  0.72017183  0.46700909  0.29089614    -0.23400
H653        H  0.72193070  0.42490196  0.26575397     0.17800
C654        C  0.70275045  0.38417426  0.23517964     0.25800
C655        C  0.70961838  0.35979654  0.22699246    -0.11900
C656        C  0.70124968  0.33833168  0.24019222    -0.25900
C657        C  0.68477847  0.34195246  0.26114890     0.36700
C658        C  0.67835091  0.36622875  0.26952260    -0.27600
F659        F  0.71109754  0.40430971  0.22179233    -0.19700
H660        H  0.72221895  0.35775125  0.21080312     0.16000
F661        F  0.67623905  0.32212165  0.27490072    -0.23400
H662        H  0.66699625  0.36817466  0.28664270     0.17800
C663        C  0.27877660  0.70869444  0.42942580    -0.27500
C664        C  0.27540362  0.68862020  0.41217374     0.06200
C665        C  0.28343824  0.66437555  0.41952304     0.25800
C666        C  0.29546597  0.66061969  0.44294738    -0.11900
C667        C  0.29950375  0.68076553  0.45987913    -0.25900
C668        C  0.29046814  0.70482781  0.45313137     0.36600
C669        C  0.26540418  0.69349144  0.38597288     0.06200
F670        F  0.27975473  0.64423619  0.40405030    -0.19700
H671        H  0.30181851  0.64178329  0.44778735     0.16000
F672        F  0.29410189  0.72485876  0.46873992    -0.23400
H673        H  0.27322949  0.72766082  0.42416127     0.17800
C674        C  0.24478873  0.70985392  0.38199149     0.25800
C675        C  0.23821118  0.71737130  0.35723147    -0.11900
C676        C  0.25204434  0.70881427  0.33592814    -0.25900
C677        C  0.27120776  0.69074839  0.33971659     0.36700
C678        C  0.27785717  0.68332168  0.36447117    -0.27600
F679        F  0.23154284  0.71933505  0.40207645    -0.19700
H680        H  0.22344940  0.73138055  0.35493921     0.16000
F681        F  0.28453141  0.68137878  0.31960319    -0.23400
H682        H  0.29381651  0.67073816  0.36680970     0.17800
C683        C  0.42438931  0.26346242  0.71020433    -0.27500
C684        C  0.40760854  0.26023829  0.68970304     0.06200
C685        C  0.41464112  0.26945132  0.66551196     0.25800
C686        C  0.43723013  0.28241380  0.66226414    -0.11900
C687        C  0.45366376  0.28630377  0.68287726    -0.25900
C688        C  0.44722196  0.27616314  0.70687426     0.36600
C689        C  0.38219435  0.24903975  0.69410122     0.06200
F690        F  0.39964368  0.26599224  0.64491303    -0.19700
H691        H  0.44178361  0.28964325  0.64347449     0.16000
F692        F  0.46223691  0.27967834  0.72745418    -0.23400
H693        H  0.41936640  0.25700364  0.72913450     0.17800
C694        C  0.37908177  0.22732246  0.70915830     0.25800
C695        C  0.35494337  0.21919627  0.71597975    -0.11900
C696        C  0.33321879  0.23241965  0.70797864    -0.25900
C697        C  0.33637442  0.25295033  0.69122000     0.36700
C698        C  0.36051899  0.26117100  0.68459135    -0.27600
F699        F  0.39938470  0.21429706  0.71788795    -0.19700
H700        H  0.35335110  0.20330609  0.72882482     0.16000
F701        F  0.31626619  0.26642649  0.68276525    -0.23400
H702        H  0.36219665  0.27802085  0.67310344     0.17800
C703        C  0.38879610  0.59891203  0.48103711    -0.27500
C704        C  0.40158105  0.59231352  0.50348090     0.06200
C705        C  0.39594476  0.60538492  0.52617940     0.25800
C706        C  0.37777068  0.62462937  0.52637976    -0.11900
C707        C  0.36485617  0.63138679  0.50393166    -0.25900
C708        C  0.37072465  0.61826736  0.48111449     0.36600
C709        C  0.42092934  0.57197982  0.50313047     0.06200
F710        F  0.40766202  0.59915813  0.54832420    -0.19700
H711        H  0.37377337  0.63417081  0.54425294     0.16000
F712        F  0.35926737  0.62413317  0.45872965    -0.23400
H713        H  0.39306966  0.58923056  0.46329249     0.17800
C714        C  0.41506465  0.54754545  0.49480220     0.25800
C715        C  0.43329148  0.52834164  0.49550709    -0.11900
C716        C  0.45776310  0.53335308  0.50386158    -0.25900
C717        C  0.46380827  0.55789831  0.51154414     0.36700
C718        C  0.44545627  0.57694573  0.51142250    -0.27600
F719        F  0.39158530  0.54214507  0.48652689    -0.19700
H720        H  0.42840901  0.50954456  0.48937522     0.16000
F721        F  0.48737056  0.56330269  0.51955753    -0.23400
H722        H  0.45041955  0.59568905  0.51765379     0.17800
C723        C  0.43930386  0.51512433  0.58172286    -0.27500
C724        C  0.42132016  0.49605903  0.58419655     0.06200
C725        C  0.42118137  0.47646285  0.56597258     0.25800
C726        C  0.43853703  0.47621035  0.54581639    -0.11900
C727        C  0.45671842  0.49502802  0.54381400    -0.25900
C728        C  0.45714568  0.51434479  0.56211591     0.36600
C729        C  0.40304532  0.49671474  0.60585200     0.06200
F730        F  0.40490083  0.45707237  0.56807778    -0.19700
H731        H  0.43818683  0.46099804  0.53203270     0.16000
F732        F  0.47538281  0.53198840  0.56154295    -0.23400
H733        H  0.43970578  0.53065617  0.59510867     0.17800
C734        C  0.41071218  0.50328269  0.63075294     0.25800
C735        C  0.39324454  0.50445894  0.65076173    -0.11900
C736        C  0.36805705  0.49829470  0.64660628    -0.25900
C737        C  0.36036336  0.49135481  0.62196247     0.36700
C738        C  0.37761918  0.49100820  0.60173429    -0.27600
F739        F  0.43521122  0.50780764  0.63601537    -0.19700
H740        H  0.39954913  0.50947996  0.66973959     0.16000
F741        F  0.33601725  0.48556433  0.61730894    -0.23400
H742        H  0.37098180  0.48650095  0.58276039     0.17800
C743        C  0.48373289  0.55215834  0.42693293    -0.27500
C744        C  0.50388130  0.56902129  0.42757989     0.06200
C745        C  0.52101126  0.56779790  0.44790018     0.25800
C746        C  0.51809093  0.54978991  0.46712245    -0.11900
C747        C  0.49822454  0.53262842  0.46620983    -0.25900
C748        C  0.48101402  0.53392754  0.44597509     0.36600
C749        C  0.50620301  0.58848034  0.40755036     0.06200
F750        F  0.54021780  0.58433585  0.44939177    -0.19700
H751        H  0.53145951  0.54902257  0.48266817     0.16000
F752        F  0.46200108  0.51718242  0.44433814    -0.23400
H753        H  0.47031259  0.55293066  0.41143067     0.17800
C754        C  0.52750610  0.58966364  0.39156196     0.25800
C755        C  0.52893935  0.60810988  0.37240465    -0.11900
C756        C  0.50898618  0.62525506  0.36884313    -0.25900
C757        C  0.48789467  0.62409878  0.38507732     0.36700
C758        C  0.48657369  0.60589991  0.40420549    -0.27600
F759        F  0.54635721  0.57239627  0.39384919    -0.19700
H760        H  0.54513019  0.60843526  0.35980608     0.16000
F761        F  0.46853529  0.64074126  0.38249661    -0.23400
H762        H  0.47013222  0.60535282  0.41646890     0.17800
C763        C  0.57948530  0.49877434  0.45565446    -0.27500
C764        C  0.57448516  0.49299525  0.42996917     0.06200
C765        C  0.54973441  0.48720177  0.42282167     0.25800
C766        C  0.53045040  0.48724378  0.44107910    -0.11900
C767        C  0.53553920  0.49287358  0.46673774    -0.25900
C768        C  0.56020296  0.49874959  0.47389886     0.36600
C769        C  0.59501257  0.49348935  0.41067411     0.06200
F770        F  0.54410218  0.48213874  0.39807906    -0.19700
H771        H  0.51147886  0.48287563  0.43524990     0.16000
F772        F  0.56550266  0.50481783  0.49847701    -0.23400
H773        H  0.59839866  0.50324033  0.46159103     0.17800
C774        C  0.61015186  0.51483003  0.40795391     0.25800
C775        C  0.62890258  0.51548523  0.38918904    -0.11900
C776        C  0.63309009  0.49488996  0.37266640    -0.25900
C777        C  0.61825504  0.47324001  0.37588739     0.36700
C778        C  0.59939944  0.47268419  0.39463812    -0.27600
F779        F  0.60625120  0.53543631  0.42286733    -0.19700
H780        H  0.63989335  0.53243626  0.38740295     0.16000
F781        F  0.62171814  0.45261558  0.36091769    -0.23400
H782        H  0.58817680  0.45590394  0.39668510     0.17800
C783        C  0.55625722  0.41930536  0.48599299    -0.27500
C784        C  0.57346606  0.41878411  0.50633594     0.06200
C785        C  0.57016551  0.43585111  0.52670520     0.25800
C786        C  0.55057108  0.45352757  0.52616495    -0.11900
C787        C  0.53366077  0.45412781  0.50567809    -0.25900
C788        C  0.53629760  0.43652828  0.48583520     0.36600
C789        C  0.59517030  0.40102434  0.50553270     0.06200
F790        F  0.58571912  0.43535581  0.54719908    -0.19700
H791        H  0.54867654  0.46696437  0.54164679     0.16000
F792        F  0.51971412  0.43620145  0.46619859    -0.23400
H793        H  0.55851320  0.40665301  0.46989869     0.17800
C794        C  0.59197498  0.37588738  0.49778468     0.25800
C795        C  0.61278954  0.36001568  0.49456994    -0.11900
C796        C  0.63705540  0.36856489  0.49982637    -0.25900
C797        C  0.64029820  0.39327587  0.50867558     0.36700
C798        C  0.61952219  0.40946705  0.51113079    -0.27600
F799        F  0.56870769  0.36654743  0.49356445    -0.19700
H800        H  0.60991943  0.34082185  0.48829011     0.16000
F801        F  0.66358775  0.40206272  0.51389216    -0.23400
H802        H  0.62257800  0.42881137  0.51674760     0.17800
C803        C  0.47474038  0.37773477  0.60169316    -0.27500
C804        C  0.49497958  0.39435700  0.59940751     0.06200
C805        C  0.51545840  0.39154451  0.61612664     0.25800
C806        C  0.51553727  0.37259514  0.63472025    -0.11900
C807        C  0.49523334  0.35593678  0.63717425    -0.25900
C808        C  0.47476945  0.35875313  0.62028154     0.36600
C809        C  0.49444230  0.41475405  0.57987101     0.06200
F810        F  0.53568529  0.40679879  0.61416754    -0.19700
H811        H  0.53164866  0.37101660  0.64721672     0.16000
F812        F  0.45469544  0.34325523  0.62156958    -0.23400
H813        H  0.45863486  0.37966566  0.58922402     0.17800
C814        C  0.48874599  0.40956207  0.55413953     0.25800
C815        C  0.48826523  0.42897118  0.53602338    -0.11900
C816        C  0.49354207  0.45384522  0.54315559    -0.25900
C817        C  0.49932526  0.45904720  0.56878123     0.36700
C818        C  0.49962044  0.43970787  0.58693980    -0.27600
F819        F  0.48440326  0.38562257  0.54636003    -0.19700
H820        H  0.48409767  0.42458248  0.51628024     0.16000
F821        F  0.50531979  0.48273857  0.57608662    -0.23400
H822        H  0.50389391  0.44424666  0.60661891     0.17800
C823        C  0.82585558  0.27262843  0.07348653    -0.27500
C824        C  0.80123286  0.26565065  0.07991258     0.06200
C825        C  0.78222664  0.26913073  0.06137857     0.25800
C826        C  0.78763872  0.28069766  0.03785685    -0.11900
C827        C  0.81193956  0.28931148  0.03244075    -0.25900
C828        C  0.83117643  0.28436812  0.05022455     0.27000
C829        C  0.79559946  0.25728650  0.10669704     0.06200
F830        F  0.75809119  0.26296663  0.06644273    -0.19700
H831        H  0.77250286  0.28416562  0.02448932     0.16000
F832        F  0.85521229  0.29127944  0.04536039    -0.23400
H833        H  0.84104138  0.26963066  0.08690686     0.17800
C834        C  0.77938860  0.23717349  0.11215480     0.25800
C835        C  0.77309352  0.23134792  0.13754992    -0.11900
C836        C  0.78306826  0.24506953  0.15818518    -0.25900
C837        C  0.80048453  0.26411457  0.15274022     0.36700
C838        C  0.80644070  0.27018150  0.12739157    -0.27600
F839        F  0.76964644  0.22303975  0.09306471    -0.19700
H840        H  0.75973438  0.21647904  0.14101791     0.16000
F841        F  0.81078773  0.27791443  0.17177598    -0.23400
H842        H  0.81897554  0.28575865  0.12395924     0.17800
C843        C  0.07606237  0.28994624  0.82092055    -0.27500
C844        C  0.08590075  0.28406584  0.79674622     0.06200
C845        C  0.07069321  0.28784716  0.77509617     0.25800
C846        C  0.04641058  0.29834301  0.77761721    -0.11900
C847        C  0.03699410  0.30544483  0.80176246    -0.25900
C848        C  0.05188975  0.30037904  0.82349094     0.36600
C849        C  0.11285668  0.27681932  0.79397666     0.06200
F850        F  0.07992395  0.28278595  0.75140643    -0.19700
H851        H  0.03550985  0.30209865  0.76057878     0.16000
F852        F  0.04327113  0.30592898  0.84731242    -0.23400
H853        H  0.08744954  0.28711410  0.83781523     0.17800
C854        C  0.13146774  0.29517228  0.79678454     0.25800
C855        C  0.15664060  0.28943436  0.79117960    -0.11900
C856        C  0.16391356  0.26509052  0.78340083    -0.25900
C857        C  0.14554317  0.24622892  0.78230380     0.36700
C858        C  0.12014500  0.25218019  0.78722049    -0.27600
F859        F  0.12504990  0.31906200  0.80357241    -0.19700
H860        H  0.17039911  0.30430755  0.79200396     0.16000
F861        F  0.15182353  0.22259225  0.77456586    -0.23400
H862        H  0.10607455  0.23775441  0.78508182     0.17800
C863        C  0.83173114  0.41542957  0.22567088    -0.27500
C864        C  0.80679577  0.40873390  0.23067409     0.06200
C865        C  0.78740565  0.42620077  0.22548554     0.25800
C866        C  0.79295788  0.44956019  0.21438757    -0.11900
C867        C  0.81787536  0.45568186  0.20813210    -0.25900
C868        C  0.83728499  0.43861238  0.21456097     0.36600
C869        C  0.80117098  0.38269612  0.23893637     0.06200
F870        F  0.76304712  0.42003573  0.22963309    -0.19700
H871        H  0.77768820  0.46228675  0.20949462     0.16000
F872        F  0.86169521  0.44415674  0.20975329    -0.23400
H873        H  0.84691996  0.40231855  0.22976689     0.17800
C874        C  0.80848674  0.36227419  0.22345026     0.25800
C875        C  0.80187664  0.33777134  0.23012383    -0.11900
C876        C  0.78747538  0.33305357  0.25219322    -0.25900
C877        C  0.78124060  0.35343251  0.26838968     0.36700
C878        C  0.78797920  0.37804421  0.26170671    -0.27600
F879        F  0.82057265  0.36620080  0.20091806    -0.19700
H880        H  0.80657377  0.32269024  0.21694966     0.16000
F881        F  0.76781417  0.34971355  0.29014192    -0.23400
H882        H  0.78245163  0.39355230  0.27402154     0.17800
C883        C  0.09031202  0.66771377  0.20610741    -0.27500
C884        C  0.09480187  0.69232244  0.21470383     0.06200
C885        C  0.07564597  0.71061960  0.21132701     0.25800
C886        C  0.05268074  0.70423416  0.19987632    -0.11900
C887        C  0.04841939  0.67968103  0.19087742    -0.25900
C888        C  0.06764262  0.66144453  0.19427477     0.36600
C889        C  0.11992968  0.69879025  0.22575409     0.06200
F890        F  0.07950816  0.73499782  0.21785496    -0.19700
H891        H  0.03853045  0.71879556  0.19725599     0.16000
F892        F  0.06463107  0.63734279  0.18634101    -0.23400
H893        H  0.10451753  0.65316173  0.20848577     0.17800
C894        C  0.12224879  0.71390942  0.24778320     0.25800
C895        C  0.14602499  0.72121371  0.25652846    -0.11900
C896        C  0.16807057  0.71342207  0.24374038    -0.25900
C897        C  0.16580715  0.69692009  0.22277110     0.36700
C898        C  0.14208621  0.68984186  0.21391977    -0.27600
F899        F  0.10155991  0.72170290  0.26090026    -0.19700
H900        H  0.14708345  0.73400923  0.27260636     0.16000
F901        F  0.18651586  0.68833154  0.21012275    -0.23400
H902        H  0.14107643  0.67800623  0.19710480     0.17800
C903        C  0.19616466  0.39499164  0.81521752    -0.27500
C904        C  0.22225179  0.39205552  0.81841061     0.06200
C905        C  0.23665587  0.41362578  0.82354879     0.25800
C906        C  0.22509928  0.43746893  0.82536368    -0.11900
C907        C  0.19899682  0.44011892  0.82262588    -0.25900
C908        C  0.18460831  0.41861394  0.81766852     0.36600
C909        C  0.23412710  0.36666830  0.81501496     0.06200
F910        F  0.26175284  0.41155853  0.82766115    -0.19700
H911        H  0.23639572  0.45371903  0.82984587     0.16000
F912        F  0.15928202  0.42049632  0.81498362    -0.23400
H913        H  0.18463837  0.37895383  0.81058163     0.17800
C914        C  0.22304902  0.34493132  0.82540775     0.25800
C915        C  0.23173394  0.32092818  0.81834410    -0.11900
C916        C  0.25177625  0.31798986  0.80098566    -0.25900
C917        C  0.26428902  0.33975948  0.79243200     0.36700
C918        C  0.25537012  0.36373805  0.79923264    -0.27600
F919        F  0.20311111  0.34682767  0.84157826    -0.19700
H920        H  0.22168804  0.30462137  0.82520676     0.16000
F921        F  0.28352852  0.33812312  0.77537276    -0.23400
H922        H  0.26412350  0.38002573  0.79068635     0.17800
C923        C  0.21044738  0.69663829  0.07351411    -0.27500
C924        C  0.21473950  0.67790077  0.09195747     0.06200
C925        C  0.21040548  0.65263138  0.08557488     0.25800
C926        C  0.20061986  0.64649604  0.06156068    -0.11900
C927        C  0.19528875  0.66541409  0.04349370    -0.25900
C928        C  0.20089663  0.69055578  0.04952573     0.36600
C929        C  0.22088298  0.68552518  0.11842626     0.06200
F930        F  0.21411757  0.63410568  0.10304816    -0.19700
H931        H  0.19656436  0.62699782  0.05733193     0.16000
F932        F  0.19557417  0.70953771  0.03298222    -0.23400
H933        H  0.21366769  0.71623762  0.07808038     0.17800
C934        C  0.24201143  0.67600194  0.13151150     0.25800
C935        C  0.24810468  0.68534980  0.15581796    -0.11900
C936        C  0.23327057  0.70435010  0.16719443    -0.25900
C937        C  0.21150501  0.71291027  0.15439887     0.36700
C938        C  0.20549588  0.70356011  0.13040192    -0.27600
F939        F  0.25746956  0.65878433  0.12024564    -0.19700
H940        H  0.26505148  0.67867457  0.16512193     0.16000
F941        F  0.19625176  0.73093250  0.16470984    -0.23400
H942        H  0.18891145  0.71083447  0.12084769     0.17800
C943        C  0.07540198  0.47306877  0.94648868    -0.27500
C944        C  0.07227143  0.48597356  0.92325482     0.06200
C945        C  0.04888941  0.49737906  0.91781842     0.25800
C946        C  0.02934813  0.49647352  0.93570219    -0.11900
C947        C  0.03282246  0.48404589  0.95903154    -0.25900
C948        C  0.05581480  0.47203624  0.96422871     0.36600
C949        C  0.09322615  0.48653228  0.90456011     0.06200
F950        F  0.04480898  0.50901917  0.89510981    -0.19700
H951        H  0.01163172  0.50582206  0.93159626     0.16000
F952        F  0.05940164  0.45975908  0.98669044    -0.23400
H953        H  0.09318259  0.46405604  0.95103144     0.17800
C954        C  0.10108174  0.50914572  0.89322610     0.25800
C955        C  0.12071465  0.50898974  0.87533713    -0.11900
C956        C  0.13311231  0.48637410  0.86865441    -0.25900
C957        C  0.12549471  0.46385185  0.88061260     0.36700
C958        C  0.10576175  0.46405036  0.89821884    -0.27600
F959        F  0.09024414  0.53145661  0.89991064    -0.19700
H960        H  0.12631704  0.52667285  0.86687679     0.16000
F961        F  0.13683629  0.44144049  0.87530823    -0.23400
H962        H  0.10005062  0.44643048  0.90676994     0.17800
C963        C  0.07675202  0.53739390  0.01320304    -0.27500
C964        C  0.07496048  0.55859406  0.99722553     0.06200
C965        C  0.05393877  0.56125261  0.98116171     0.25800
C966        C  0.03491490  0.54326634  0.98152700    -0.11900
C967        C  0.03660447  0.52232413  0.99775480    -0.25900
C968        C  0.05779367  0.51932778  0.01340882     0.36600
C969        C  0.09495921  0.57788430  0.99748498     0.06200
F970        F  0.05143039  0.58163877  0.96571874    -0.19700
H971        H  0.01863903  0.54580424  0.96939171     0.16000
F972        F  0.06013436  0.49889724  0.02880186    -0.23400
H973        H  0.09294708  0.53478631  0.02543173     0.17800
C974        C  0.10230288  0.58933950  0.02048364     0.25800
C975        C  0.12108644  0.60760558  0.02048888    -0.11900
C976        C  0.13270558  0.61502993  0.99755480    -0.25900
C977        C  0.12539514  0.60344353  0.97456021     0.36700
C978        C  0.10675858  0.58504384  0.97461093    -0.27600
F979        F  0.09070785  0.58348300  0.04282747    -0.19700
H980        H  0.12608750  0.61641924  0.03840750     0.16000
F981        F  0.13653036  0.60955190  0.95205131    -0.23400
H982        H  0.10160627  0.57622983  0.95673252     0.17800
C983        C  0.01128577  0.54102133  0.07983245    -0.27500
C984        C  0.00188875  0.56515946  0.07386358     0.06200
C985        C  0.99206867  0.56946836  0.04923884     0.25800
C986        C  0.99058236  0.54976666  0.03159715    -0.11900
C987        C  0.99934125  0.52560353  0.03789689    -0.25900
C988        C  0.01019797  0.52143805  0.06195167     0.36600
C989        C  0.00221392  0.58561824  0.09335598     0.06200
F990        F  0.98445451  0.59285185  0.04198324    -0.19700
H991        H  0.98278984  0.55337854  0.01283998     0.16000
F992        F  0.01987743  0.49849745  0.06804283    -0.23400
H993        H  0.01920416  0.53724152  0.09849220     0.17800
C994        C  0.98072724  0.60062368  0.09792264     0.25800
C995        C  0.98133899  0.62021794  0.11572631    -0.11900
C996        C  0.00322767  0.62524757  0.12979401    -0.25900
C997        C  0.02448071  0.60954059  0.12593839     0.36700
C998        C  0.02391955  0.59006193  0.10784378    -0.27600
F999        F  0.95884899  0.59602222  0.08559597    -0.19700
H1000       H  0.96446737  0.63149400  0.11842221     0.16000
F1001       F  0.04586779  0.61288075  0.13950086    -0.23400
H1002       H  0.04064172  0.57860646  0.10491019     0.17800
C1003       C  0.91885061  0.50330110  0.05687338    -0.27500
C1004       C  0.92401314  0.49205061  0.08066112     0.06200
C1005       C  0.94701166  0.47903083  0.08386915     0.25800
C1006       C  0.96425123  0.47733018  0.06370470    -0.11900
C1007       C  0.95915758  0.48898546  0.04027132    -0.25900
C1008       C  0.93637015  0.50202552  0.03693082     0.36600
C1009       C  0.90526745  0.49372141  0.10180245     0.06200
F1010       F  0.95315087  0.46849504  0.10665945    -0.19700
H1011       H  0.98174951  0.46711111  0.06642664     0.16000
F1012       F  0.93114007  0.51353741  0.01439014    -0.23400
H1013       H  0.90113803  0.51297361  0.05364035     0.17800
C1014       C  0.89281281  0.51655948  0.10749543     0.25800
C1015       C  0.87453964  0.51762667  0.12673981    -0.11900
C1016       C  0.86839510  0.49608411  0.14102355    -0.25900
C1017       C  0.88143825  0.47339360  0.13580469     0.36700
C1018       C  0.89939938  0.47226154  0.11624330    -0.27600
F1019       F  0.89853551  0.53801084  0.09474165    -0.19700
H1020       H  0.86518183  0.53547359  0.13039913     0.16000
F1021       F  0.87671772  0.45210320  0.14923786    -0.23400
H1022       H  0.90843134  0.45435391  0.11209484     0.17800
C1023       C  0.88699447  0.38452904  0.01909162    -0.27500
C1024       C  0.89631738  0.39611458  0.99697050     0.06200
C1025       C  0.88709627  0.38867180  0.97302153     0.25800
C1026       C  0.86881002  0.37005678  0.97131345    -0.11900
C1027       C  0.85941316  0.35831577  0.99340594    -0.25900
C1028       C  0.86864443  0.36592285  0.01744865     0.36600
C1029       C  0.91598614  0.41556950  0.99889237     0.06200
F1030       F  0.89633174  0.39887184  0.95118343    -0.19700
H1031       H  0.86228145  0.36459257  0.95255451     0.16000
F1032       F  0.85977997  0.35575119  0.03946089    -0.23400
H1033       H  0.89379123  0.39010407  0.03772485     0.17800
C1034       C  0.91274486  0.43923689  0.98722415     0.25800
C1035       C  0.93201300  0.45689463  0.98787481    -0.11900
C1036       C  0.95463625  0.45132615  0.00034649    -0.25900
C1037       C  0.95772367  0.42800990  0.01260854     0.36700
C1038       C  0.93847124  0.41028626  0.01193042    -0.27600
F1039       F  0.89088167  0.44531491  0.97534724    -0.19700
H1040       H  0.92943139  0.47486015  0.97841305     0.16000
F1041       F  0.97954344  0.42224906  0.02472855    -0.23400
H1042       H  0.94133048  0.39218083  0.02103741     0.17800
C1043       C  0.99893452  0.41115127  0.93683145    -0.27500
C1044       C  0.98544033  0.41854606  0.91491117     0.06200
C1045       C  0.97269687  0.44196263  0.91527152     0.25800
C1046       C  0.97475796  0.45800968  0.93645188    -0.11900
C1047       C  0.98941460  0.45103115  0.95759003    -0.25900
C1048       C  0.00110750  0.42727071  0.95784782     0.36600
C1049       C  0.98622153  0.40236411  0.89150540     0.06200
F1050       F  0.95924382  0.44990926  0.89476973    -0.19700
H1051       H  0.96540568  0.47621583  0.93614492     0.16000
F1052       F  0.01504310  0.41987849  0.97822207    -0.23400
H1053       H  0.00826254  0.39295102  0.93750888     0.17800
C1054       C  0.00916075  0.39169069  0.88318116     0.25800
C1055       C  0.01005991  0.37570670  0.86200519    -0.11900
C1056       C  0.98826503  0.37011318  0.84810686    -0.25900
C1057       C  0.96536394  0.38159502  0.85571740     0.36700
C1058       C  0.96439772  0.39735245  0.87731530    -0.27600
F1059       F  0.03098505  0.39703111  0.89527656    -0.19700
H1060       H  0.02808147  0.36770466  0.85648960     0.16000
F1061       F  0.94378323  0.37724278  0.84276363    -0.23400
H1062       H  0.94644704  0.40522344  0.88322432     0.17800
C1063       C  0.27910731  0.80267569  0.08033329    -0.27500
C1064       C  0.28201314  0.82133025  0.09915846     0.06200
C1065       C  0.29428908  0.84370927  0.09259146     0.25800
C1066       C  0.30505712  0.84651700  0.06837889    -0.11900
C1067       C  0.30369418  0.82719547  0.05004468    -0.25900
C1068       C  0.28968402  0.80556357  0.05594421     0.36600
C1069       C  0.27524981  0.81593344  0.12620053     0.06200
F1070       F  0.29651430  0.86260564  0.10987796    -0.19700
H1071       H  0.31511171  0.86366891  0.06424465     0.16000
F1072       F  0.28749421  0.78648839  0.03884951    -0.23400
H1073       H  0.26986746  0.78517706  0.08494739     0.17800
C1074       C  0.25198093  0.80534083  0.13279581     0.25800
C1075       C  0.24790995  0.79622180  0.15756622    -0.11900
C1076       C  0.26691049  0.79747896  0.17606290    -0.25900
C1077       C  0.28937850  0.80967985  0.17005130     0.36700
C1078       C  0.29347798  0.81885613  0.14535801    -0.27600
F1079       F  0.23364704  0.80279405  0.11504242    -0.19700
H1080       H  0.23055570  0.78654561  0.16179595     0.16000
F1081       F  0.30788477  0.81152318  0.18760854    -0.23400
H1082       H  0.31161117  0.82680128  0.14079650     0.17800
C1083       C  0.42851038  0.79676436  0.22212116    -0.27500
C1084       C  0.40930903  0.81509665  0.22068597     0.06200
C1085       C  0.41523575  0.83920499  0.21179551     0.25800
C1086       C  0.43971712  0.84455442  0.20357758    -0.11900
C1087       C  0.45887452  0.82596869  0.20396407    -0.25900
C1088       C  0.45306312  0.80207958  0.21402511     0.36600
C1089       C  0.38274375  0.80783502  0.22508910     0.06200
F1090       F  0.39697491  0.85707576  0.20947186    -0.19700
H1091       H  0.44342806  0.86312906  0.19602646     0.16000
F1092       F  0.47059120  0.78335030  0.21471536    -0.23400
H1093       H  0.42420974  0.77794708  0.22867941     0.17800
C1094       C  0.37184117  0.79033237  0.20863568     0.25800
C1095       C  0.34755264  0.78195531  0.21310387    -0.11900
C1096       C  0.33339504  0.79025295  0.23445545    -0.25900
C1097       C  0.34375845  0.80884603  0.25030155     0.36700
C1098       C  0.36827678  0.81770112  0.24547658    -0.27600
F1099       F  0.38495321  0.78084768  0.18842329    -0.19700
H1100       H  0.34014919  0.76796393  0.20015746     0.16000
F1101       F  0.33095888  0.81731479  0.27111073    -0.23400
H1102       H  0.37635836  0.83146694  0.25821948     0.17800
C1103       C  0.37354336  0.21608277  0.80893559    -0.27500
C1104       C  0.39369342  0.23075731  0.80040166     0.06200
C1105       C  0.38822484  0.25339364  0.78734776     0.25800
C1106       C  0.36315161  0.26044241  0.78223607    -0.11900
C1107       C  0.34308103  0.24541563  0.79057909    -0.25900
C1108       C  0.34870840  0.22334121  0.80450061     0.36600
C1109       C  0.41992529  0.22103788  0.80411972     0.06200
F1110       F  0.40702684  0.26864562  0.77948282    -0.19700
H1111       H  0.35944965  0.27738100  0.77131195     0.16000
F1112       F  0.33031839  0.20755841  0.81236031    -0.23400
H1113       H  0.37696302  0.19819389  0.81827370     0.17800
C1114       C  0.42673426  0.20913406  0.82717161     0.25800
C1115       C  0.44934646  0.19571722  0.82907734    -0.11900
C1116       C  0.46620301  0.19421709  0.80837394    -0.25900
C1117       C  0.46045767  0.20781888  0.78596926     0.36700
C1118       C  0.43740765  0.22083661  0.78382610    -0.27600
F1119       F  0.41123219  0.20994300  0.84783366    -0.19700
H1120       H  0.45347362  0.18610182  0.84684707     0.16000
F1121       F  0.47634864  0.20741817  0.76562201    -0.23400
H1122       H  0.43273582  0.22964639  0.76579618     0.17800
C1123       C  0.23985147  0.11653132  0.79846812    -0.27500
C1124       C  0.26037314  0.11151410  0.81463304     0.06200
C1125       C  0.27252643  0.13205459  0.82612418     0.25800
C1126       C  0.26476657  0.15677494  0.82104455    -0.11900
C1127       C  0.24522183  0.16196727  0.80373945    -0.25900
C1128       C  0.23231443  0.14140136  0.79301413     0.36600
C1129       C  0.27020344  0.08522473  0.81822943     0.06200
F1130       F  0.29333137  0.12847249  0.84065682    -0.19700
H1131       H  0.27543993  0.17196928  0.82933173     0.16000
F1132       F  0.21343917  0.14518473  0.77602307    -0.23400
H1133       H  0.23007718  0.10114971  0.78942487     0.17800
C1134       C  0.27734671  0.07652373  0.84257589     0.25800
C1135       C  0.28992708  0.05345405  0.84533014    -0.11900
C1136       C  0.29507750  0.03797113  0.82410687    -0.25900
C1137       C  0.28630513  0.04566044  0.79996373     0.36700
C1138       C  0.27414897  0.06915908  0.79707993    -0.27600
F1139       F  0.27227832  0.09037510  0.86382227    -0.19700
H1140       H  0.29584412  0.04771824  0.86426060     0.16000
F1141       F  0.29072315  0.03122219  0.77898776    -0.23400
H1142       H  0.26873351  0.07523892  0.77812137     0.17800
C1143       C  0.66810287  0.23600201  0.13468053    -0.27500
C1144       C  0.68279857  0.24220084  0.11312282     0.06200
C1145       C  0.70319910  0.25844759  0.11655704     0.25800
C1146       C  0.70984449  0.26651778  0.14094757    -0.11900
C1147       C  0.69691660  0.25804212  0.16279527    -0.25900
C1148       C  0.67522431  0.24352654  0.15932621     0.36600
C1149       C  0.67847329  0.22987841  0.08780497     0.06200
F1150       F  0.71825600  0.26480648  0.09671241    -0.19700
H1151       H  0.72667792  0.27766468  0.14273187     0.16000
F1152       F  0.66173238  0.23540936  0.17972836    -0.23400
H1153       H  0.65169777  0.22430482  0.13260347     0.17800
C1154       C  0.67361093  0.20390007  0.08640947     0.25800
C1155       C  0.67103295  0.19204278  0.06275533    -0.11900
C1156       C  0.67384642  0.20544312  0.03977574    -0.25900
C1157       C  0.67901503  0.23130165  0.04096008     0.36700
C1158       C  0.68090800  0.24342118  0.06473813    -0.27600
F1159       F  0.67232100  0.18959384  0.10785728    -0.19700
H1160       H  0.66729821  0.17203684  0.06243977     0.16000
F1161       F  0.68151505  0.24499764  0.01923284    -0.23400
H1162       H  0.68424039  0.26348249  0.06506017     0.17800
C1163       C  0.70664384  0.06813701  0.22792116    -0.27500
C1164       C  0.68674362  0.08568002  0.23004396     0.06200
C1165       C  0.66296418  0.07902645  0.22066669     0.25800
C1166       C  0.65966118  0.05612822  0.20799673    -0.11900
C1167       C  0.67981413  0.03910155  0.20476132    -0.25900
C1168       C  0.70322778  0.04498042  0.21559682     0.36600
C1169       C  0.69145517  0.11168429  0.23947273     0.06200
F1170       F  0.64296550  0.09489755  0.22334143    -0.19700
H1171       H  0.64131613  0.05188344  0.20030029     0.16000
F1172       F  0.72325281  0.02915507  0.21287480    -0.23400
H1173       H  0.72522005  0.07284818  0.23468491     0.17800
C1174       C  0.70566619  0.11621789  0.26161332     0.25800
C1175       C  0.71208228  0.14087280  0.26838499    -0.11900
C1176       C  0.70438793  0.16150646  0.25332761    -0.25900
C1177       C  0.68928760  0.15696001  0.23179666     0.36700
C1178       C  0.68305221  0.13237382  0.22499281    -0.27600
F1179       F  0.71366846  0.09682834  0.27649138    -0.19700
H1180       H  0.72386267  0.14372292  0.28494958     0.16000
F1181       F  0.68187753  0.17604284  0.21621588    -0.23400
H1182       H  0.67255523  0.12945898  0.20756642     0.17800
C1183       C  0.44402403  0.97976254  0.92242643    -0.27500
C1184       C  0.42543514  0.99876969  0.92338167     0.06200
C1185       C  0.42738850  0.01785408  0.94195711     0.25800
C1186       C  0.44753202  0.01779919  0.95907435    -0.11900
C1187       C  0.46593255  0.99869706  0.95813325    -0.25900
C1188       C  0.46412427  0.97972605  0.93957614     0.36600
C1189       C  0.40395109  0.99810176  0.90527402     0.06200
F1190       F  0.40939088  0.03602482  0.94419665    -0.19700
H1191       H  0.44857883  0.03242908  0.97344938     0.16000
F1192       F  0.48184919  0.96123255  0.93803788    -0.23400
H1193       H  0.44303281  0.96496225  0.90823175     0.17800
C1194       C  0.39683717  0.01946425  0.89100873     0.25800
C1195       C  0.37682765  0.01825672  0.87375974    -0.11900
C1196       C  0.36381639  0.99566260  0.86997584    -0.25900
C1197       C  0.37095278  0.97430208  0.88423441     0.36700
C1198       C  0.39073705  0.97560624  0.90171735    -0.27600
F1199       F  0.40981664  0.04123859  0.89296874    -0.19700
H1200       H  0.37193538  0.03489316  0.86282036     0.16000
F1201       F  0.35853045  0.95226100  0.88169292    -0.23400
H1202       H  0.39571128  0.95896969  0.91262558     0.17800
C1203       C  0.45648761  0.91597627  0.99285586    -0.27500
C1204       C  0.43109332  0.92217910  0.99719218     0.06200
C1205       C  0.42430908  0.94756750  0.00119640     0.25800
C1206       C  0.44265672  0.96619113  0.00155528    -0.11900
C1207       C  0.46805255  0.95997591  0.99751446    -0.25900
C1208       C  0.47483557  0.93470560  0.99294084     0.36600
C1209       C  0.41183786  0.90218878  0.99884786     0.06200
F1210       F  0.39984515  0.95439449  0.00441804    -0.19700
H1211       H  0.43705258  0.98558229  0.00486607     0.16000
F1212       F  0.49915879  0.92823576  0.98825209    -0.23400
H1213       H  0.46215210  0.89656349  0.98979951     0.17800
C1214       C  0.40882255  0.88427386  0.97931983     0.25800
C1215       C  0.38978906  0.86627818  0.98106696    -0.11900
C1216       C  0.37354541  0.86562518  0.00240060    -0.25900
C1217       C  0.37723762  0.88318843  0.02225391     0.36700
C1218       C  0.39607620  0.90119339  0.02034976    -0.27600
F1219       F  0.42372268  0.88464535  0.95820919    -0.19700
H1220       H  0.38765152  0.85300142  0.96553675     0.16000
F1221       F  0.36250110  0.88339910  0.04347663    -0.23400
H1222       H  0.39837927  0.91450971  0.03583595     0.17800
C1223       C  0.60578215  0.10787368  0.01587465    -0.27500
C1224       C  0.59576871  0.09924055  0.99275525     0.06200
C1225       C  0.60328835  0.11070463  0.96977209     0.25800
C1226       C  0.62098230  0.13002343  0.96999364    -0.11900
C1227       C  0.63121144  0.13855748  0.99313061    -0.25900
C1228       C  0.62326227  0.12730785  0.01617134     0.36600
C1229       C  0.57746263  0.07837712  0.99295677     0.06200
F1230       F  0.59303654  0.10369309  0.94717836    -0.19700
H1231       H  0.62638141  0.13858637  0.95204036     0.16000
F1232       F  0.63273184  0.13459816  0.03903111    -0.23400
H1233       H  0.60028429  0.09927186  0.03378650     0.17800
C1234       C  0.58107492  0.05696061  0.97744571     0.25800
C1235       C  0.56373082  0.03736163  0.97805440    -0.11900
C1236       C  0.54280205  0.03870086  0.99434925    -0.25900
C1237       C  0.53930461  0.05984901  0.01008266     0.36700
C1238       C  0.55650263  0.07952937  0.00935600    -0.27600
F1239       F  0.60172931  0.05467065  0.96229144    -0.19700
H1240       H  0.56668182  0.02101290  0.96598845     0.16000
F1241       F  0.51904947  0.06153939  0.02586255    -0.23400
H1242       H  0.55336765  0.09581030  0.02147121     0.17800
C1243       C  0.51366577  0.04434234  0.90913747    -0.27500
C1244       C  0.50670702  0.06962620  0.91284707     0.06200
C1245       C  0.49922579  0.07770522  0.93734151     0.25800
C1246       C  0.49879457  0.06066103  0.95778931    -0.11900
C1247       C  0.50573205  0.03533597  0.95406121    -0.25900
C1248       C  0.51312146  0.02728882  0.92953327     0.36600
C1249       C  0.50728040  0.08745899  0.89108978     0.06200
F1250       F  0.49266480  0.10212993  0.94149388    -0.19700
H1251       H  0.49300115  0.06716169  0.97654615     0.16000
F1252       F  0.52000546  0.00295280  0.92541177    -0.23400
H1253       H  0.51943798  0.03782352  0.89037312     0.17800
C1254       C  0.53020106  0.09654348  0.88165040     0.25800
C1255       C  0.53053884  0.11379668  0.86137398    -0.11900
C1256       C  0.50800489  0.12236793  0.85020375    -0.25900
C1257       C  0.48508084  0.11257740  0.85928427     0.36700
C1258       C  0.48480380  0.09541114  0.87961046    -0.27600
F1259       F  0.55220281  0.08923346  0.89254104    -0.19700
H1260       H  0.54843289  0.12099487  0.85490106     0.16000
F1261       F  0.46291306  0.11935314  0.84838026    -0.23400
H1262       H  0.46700115  0.08825827  0.88641873     0.17800
C1263       C  0.51537744  0.88514368  0.09645300    -0.27500
C1264       C  0.50787637  0.91022058  0.10110017     0.06200
C1265       C  0.50004574  0.91682470  0.12609658     0.25800
C1266       C  0.49943186  0.89862134  0.14556146    -0.11900
C1267       C  0.50738637  0.87378514  0.14074212    -0.25900
C1268       C  0.51557625  0.86728110  0.11605387     0.36600
C1269       C  0.50783033  0.92889101  0.07962606     0.06200
F1270       F  0.49352918  0.94092462  0.13194006    -0.19700
H1271       H  0.49319275  0.90402248  0.16453579     0.16000
F1272       F  0.52285235  0.84329666  0.11060527    -0.23400
H1273       H  0.52071597  0.87911683  0.07741021     0.17800
C1274       C  0.52744709  0.92917265  0.06136402     0.25800
C1275       C  0.52650472  0.94567270  0.04052013    -0.11900
C1276       C  0.50642735  0.96275388  0.03765403    -0.25900
C1277       C  0.48714640  0.96301057  0.05610061     0.36700
C1278       C  0.48769638  0.94604928  0.07662006    -0.27600
F1279       F  0.54789555  0.91390243  0.06388773    -0.19700
H1280       H  0.54168011  0.94534344  0.02666718     0.16000
F1281       F  0.46797401  0.97997419  0.05448527    -0.23400
H1282       H  0.47213303  0.94618539  0.08999598     0.17800
C1283       C  0.61721011  0.97859348  0.09566121    -0.27500
C1284       C  0.60338407  0.00079397  0.09123555     0.06200
C1285       C  0.60770398  0.02185207  0.10682814     0.25800
C1286       C  0.62515244  0.02049374  0.12674495    -0.11900
C1287       C  0.63874969  0.99812662  0.13160981    -0.25900
C1288       C  0.63468005  0.97716061  0.11556757     0.36600
C1289       C  0.58367429  0.00145558  0.07119218     0.06200
F1290       F  0.59520946  0.04386366  0.10263145    -0.19700
H1291       H  0.62792194  0.03706451  0.13841702     0.16000
F1292       F  0.64719887  0.95506711  0.11918798    -0.23400
H1293       H  0.61402671  0.96207047  0.08401886     0.17800
C1294       C  0.58899751  0.99398470  0.04590623     0.25800
C1295       C  0.56989838  0.99382129  0.02756106    -0.11900
C1296       C  0.54522849  0.00097154  0.03413479    -0.25900
C1297       C  0.53995431  0.00868363  0.05926928     0.36700
C1298       C  0.55901951  0.00890507  0.07759471    -0.27600
F1299       F  0.61269047  0.98714093  0.03889603    -0.19700
H1300       H  0.57425352  0.98786840  0.00822987     0.16000
F1301       F  0.51632426  0.01589742  0.06606807    -0.23400
H1302       H  0.55443401  0.01449542  0.09698311     0.17800
C1303       C  0.78055765  0.86696208  0.30639875    -0.27500
C1304       C  0.76738239  0.88818747  0.29721702     0.06200
C1305       C  0.74668323  0.88413476  0.28099872     0.25800
C1306       C  0.74025023  0.85959745  0.27331130    -0.11900
C1307       C  0.75420225  0.83847901  0.28167315    -0.25900
C1308       C  0.77405736  0.84252832  0.29892638     0.36600
C1309       C  0.77626187  0.91418678  0.30385614     0.06200
F1310       F  0.73271029  0.90389351  0.27248773    -0.19700
H1311       H  0.72503184  0.85724735  0.25985955     0.16000
F1312       F  0.78781157  0.82287303  0.30806083    -0.23400
H1313       H  0.79664829  0.86929880  0.31874927     0.17800
C1314       C  0.78321783  0.92028456  0.32905860     0.25800
C1315       C  0.79450156  0.94340417  0.33461860    -0.11900
C1316       C  0.79889422  0.96139413  0.31539367    -0.25900
C1317       C  0.79081990  0.95588629  0.29038119     0.36700
C1318       C  0.77977130  0.93253072  0.28472806    -0.27600
F1319       F  0.77920792  0.90380212  0.34842993    -0.19700
H1320       H  0.80007800  0.94713661  0.35413239     0.16000
F1321       F  0.79486936  0.97241265  0.27107185    -0.23400
H1322       H  0.77490381  0.92839085  0.26510234     0.17800
C1323       C  0.72791047  0.92322120  0.20785926    -0.27500
C1324       C  0.72760763  0.90444042  0.18893036     0.06200
C1325       C  0.71551637  0.90964098  0.16565007     0.25800
C1326       C  0.70315843  0.93264861  0.16187705    -0.11900
C1327       C  0.70261612  0.95119525  0.18109466    -0.25900
C1328       C  0.71560537  0.94638396  0.20406724     0.36600
C1329       C  0.73856356  0.87903393  0.19394161     0.06200
F1330       F  0.71568319  0.89246066  0.14642857    -0.19700
H1331       H  0.69382258  0.93581967  0.14379346     0.16000
F1332       F  0.71575646  0.96357537  0.22325962    -0.23400
H1333       H  0.73705275  0.91968756  0.22595173     0.17800
C1334       C  0.76273747  0.87591489  0.20437161     0.25800
C1335       C  0.77237354  0.85174273  0.20923914    -0.11900
C1336       C  0.75810423  0.83022199  0.20393168    -0.25900
C1337       C  0.73395228  0.83342374  0.19342317     0.36700
C1338       C  0.72437555  0.85752490  0.18858826    -0.27600
F1339       F  0.77714720  0.89618030  0.20965137    -0.19700
H1340       H  0.79086499  0.84991387  0.21765145     0.16000
F1341       F  0.71926771  0.81334387  0.18822298    -0.23400
H1342       H  0.70551506  0.85939012  0.18106046     0.17800
C1343       C  0.86370213  0.73219027  0.17549190    -0.27500
C1344       C  0.88325814  0.72308125  0.19132036     0.06200
C1345       C  0.87790195  0.71851426  0.21711162     0.25800
C1346       C  0.85387385  0.72275782  0.22685116    -0.11900
C1347       C  0.83405214  0.73188638  0.21142572    -0.25900
C1348       C  0.83931498  0.73686704  0.18549809     0.36600
C1349       C  0.90886916  0.71644252  0.18138456     0.06200
F1350       F  0.89581140  0.70899773  0.23292166    -0.19700
H1351       H  0.85096667  0.71882205  0.24694719     0.16000
F1352       F  0.82104008  0.74586701  0.16986385    -0.23400
H1353       H  0.86735074  0.73571365  0.15544535     0.17800
C1354       C  0.91193198  0.69785346  0.16254600     0.25800
C1355       C  0.93576208  0.68747711  0.15743094    -0.11900
C1356       C  0.95728003  0.69525125  0.17096735    -0.25900
C1357       C  0.95440864  0.71515704  0.18861529     0.36700
C1358       C  0.93047516  0.72551630  0.19372747    -0.27600
F1359       F  0.89162833  0.68828919  0.15045149    -0.19700
H1360       H  0.93706696  0.67248069  0.14345548     0.16000
F1361       F  0.97441387  0.72398491  0.20175020    -0.23400
H1362       H  0.92861666  0.73994321  0.20827289     0.17800
C1363       C  0.91934522  0.78216873  0.34326405    -0.27500
C1364       C  0.91037111  0.78078525  0.31816958     0.06200
C1365       C  0.92716646  0.78489119  0.29774522     0.25800
C1366       C  0.95225675  0.79119464  0.30245367    -0.11900
C1367       C  0.96085672  0.79412512  0.32758797    -0.25900
C1368       C  0.94425804  0.78897384  0.34800469     0.36600
C1369       C  0.88315278  0.77716890  0.31333588     0.06200
F1370       F  0.91905524  0.78357647  0.27322452    -0.19700
H1371       H  0.96450882  0.79531154  0.28644784     0.16000
F1372       F  0.95188523  0.79134656  0.37261743    -0.23400
H1373       H  0.90671467  0.77913944  0.35922885     0.17800
C1374       C  0.87078186  0.75491329  0.32039270     0.25800
C1375       C  0.84553483  0.75121742  0.31352994    -0.11900
C1376       C  0.83234356  0.76971196  0.29961652    -0.25900
C1377       C  0.84445904  0.79257839  0.29406109     0.36700
C1378       C  0.86951495  0.79617219  0.30084896    -0.27600
F1379       F  0.88358342  0.73615140  0.33239120    -0.19700
H1380       H  0.83691345  0.73325183  0.31749345     0.16000
F1381       F  0.83247720  0.81101238  0.28071396    -0.23400
H1382       H  0.87857375  0.81362074  0.29565313     0.17800
C1383       C  0.70758907  0.58597105  0.34588425    -0.27500
C1384       C  0.71075590  0.59628500  0.32147849     0.06200
C1385       C  0.70727211  0.58086309  0.29992812     0.25800
C1386       C  0.69972928  0.55578527  0.30277660    -0.11900
C1387       C  0.69511754  0.54577705  0.32716767    -0.25900
C1388       C  0.69972773  0.56101676  0.34877737     0.36600
C1389       C  0.71631630  0.62341106  0.31822907     0.06200
F1390       F  0.71054345  0.59034472  0.27607416    -0.19700
H1391       H  0.69624942  0.54461966  0.28585540     0.16000
F1392       F  0.69616392  0.55195128  0.37276065    -0.23400
H1393       H  0.71035924  0.59752304  0.36268441     0.17800
C1394       C  0.69786478  0.63973296  0.30832502     0.25800
C1395       C  0.70417477  0.66411716  0.30080111    -0.11900
C1396       C  0.72893069  0.67278614  0.30322717    -0.25900
C1397       C  0.74688523  0.65722148  0.31524062     0.36700
C1398       C  0.74055925  0.63265027  0.32267500    -0.27600
F1399       F  0.67404136  0.63159847  0.30468848    -0.19700
H1400       H  0.69003276  0.67576051  0.29158572     0.16000
F1401       F  0.77107157  0.66476319  0.31738110    -0.23400
H1402       H  0.75497073  0.62032165  0.33041331     0.17800
C1403       C  0.79538419  0.63870691  0.19578365    -0.27500
C1404       C  0.77585692  0.62115915  0.19503194     0.06200
C1405       C  0.75111700  0.62928402  0.20007927     0.25800
C1406       C  0.74623738  0.65449519  0.20654987    -0.11900
C1407       C  0.76601667  0.67168363  0.20861784    -0.25900
C1408       C  0.79060368  0.66364736  0.20286910     0.36600
C1409       C  0.78206860  0.59436967  0.19003627     0.06200
F1410       F  0.73189238  0.61270770  0.19957694    -0.19700
H1411       H  0.72729697  0.66014471  0.21185131     0.16000
F1412       F  0.81020296  0.67951088  0.20568947    -0.23400
H1413       H  0.81460085  0.63272945  0.19216063     0.17800
C1414       C  0.79457487  0.58759661  0.16741789     0.25800
C1415       C  0.80412925  0.56325526  0.16424824    -0.11900
C1416       C  0.80167407  0.54506509  0.18365180    -0.25900
C1417       C  0.78789818  0.55148012  0.20584703     0.36700
C1418       C  0.77817586  0.57599119  0.20893250    -0.27600
F1419       F  0.79820580  0.60483420  0.14865505    -0.19700
H1420       H  0.81419056  0.55891358  0.14673470     0.16000
F1421       F  0.78503756  0.53467628  0.22514478    -0.23400
H1422       H  0.76870629  0.58098453  0.22661369     0.17800
C1423       C  0.62263399  0.73940392  0.20349602    -0.27500
C1424       C  0.61978457  0.76401992  0.19396226     0.06200
C1425       C  0.64156744  0.77825888  0.18954118     0.25800
C1426       C  0.66541969  0.76823334  0.19480889    -0.11900
C1427       C  0.66835678  0.74388388  0.20493704    -0.25900
C1428       C  0.64660365  0.72935294  0.20885725     0.36600
C1429       C  0.59427911  0.77533803  0.18963594     0.06200
F1430       F  0.63979476  0.80249524  0.18148336    -0.19700
H1431       H  0.68160897  0.78007671  0.19193007     0.16000
F1432       F  0.64834404  0.70568623  0.21848585    -0.23400
H1433       H  0.60622457  0.72801176  0.20703710     0.17800
C1434       C  0.58881944  0.78829990  0.16685765     0.25800
C1435       C  0.56625339  0.80175888  0.16421841    -0.11900
C1436       C  0.54817548  0.80238389  0.18394661    -0.25900
C1437       C  0.55281271  0.78793363  0.20608368     0.36700
C1438       C  0.57569306  0.77465777  0.20887164    -0.27600
F1439       F  0.60541686  0.78811862  0.14708674    -0.19700
H1440       H  0.56308159  0.81200802  0.14661533     0.16000
F1441       F  0.53587982  0.78754021  0.22553166    -0.23400
H1442       H  0.57930514  0.76464985  0.22653626     0.17800
C1443       C  0.61922582  0.75368520  0.28578560    -0.27500
C1444       C  0.61741843  0.73402640  0.30382644     0.06200
C1445       C  0.63997106  0.72406114  0.31396787     0.25800
C1446       C  0.66331346  0.73272328  0.30548797    -0.11900
C1447       C  0.66513510  0.75112600  0.28627041    -0.25900
C1448       C  0.64272913  0.76206142  0.27696398     0.36600
C1449       C  0.59250455  0.72210942  0.30973788     0.06200
F1450       F  0.63978081  0.70424228  0.33031048    -0.19700
H1451       H  0.68013854  0.72361477  0.31276237     0.16000
F1452       F  0.64338127  0.77925411  0.25780299    -0.23400
H1453       H  0.60236216  0.76187290  0.27760689     0.17800
C1454       C  0.58640495  0.71348449  0.33449104     0.25800
C1455       C  0.56501301  0.69878764  0.33862543    -0.11900
C1456       C  0.54842353  0.69318894  0.31856716    -0.25900
C1457       C  0.55326010  0.70365993  0.29434103     0.36700
C1458       C  0.57517392  0.71759806  0.28996718    -0.27600
F1459       F  0.60093699  0.71938265  0.35485429    -0.19700
H1460       H  0.56137296  0.69181855  0.35771990     0.16000
F1461       F  0.53750269  0.69944908  0.27450400    -0.23400
H1462       H  0.57902548  0.72403789  0.27072900     0.17800
C1463       C  0.85617541  0.32389484  0.75594155    -0.27500
C1464       C  0.87664852  0.31596329  0.74076969     0.06200
C1465       C  0.87192093  0.30110432  0.71908910     0.25800
C1466       C  0.84757826  0.29260458  0.71408942    -0.11900
C1467       C  0.82741504  0.29886330  0.73046942    -0.25900
C1468       C  0.83180328  0.31556241  0.75087981     0.36600
C1469       C  0.90280583  0.32081673  0.74952427     0.06200
F1470       F  0.89100673  0.29399478  0.70330063    -0.19700
H1471       H  0.84475924  0.27990383  0.69817604     0.16000
F1472       F  0.81312356  0.32189991  0.76749756    -0.23400
H1473       H  0.85928231  0.33518994  0.77285384     0.17800
C1474       C  0.91001473  0.34489576  0.75768573     0.25800
C1475       C  0.93309407  0.34830810  0.76992147    -0.11900
C1476       C  0.94964752  0.32789354  0.77416445    -0.25900
C1477       C  0.94311384  0.30406329  0.76460888     0.36700
C1478       C  0.91989412  0.30062070  0.75250840    -0.27600
F1479       F  0.89446808  0.36504686  0.75437593    -0.19700
H1480       H  0.93775011  0.36693735  0.77673926     0.16000
F1481       F  0.95822653  0.28371920  0.76859446    -0.23400
H1482       H  0.91468202  0.28181230  0.74671486     0.17800
C1483       C  0.87915098  0.22183208  0.74724575    -0.27500
C1484       C  0.88327315  0.19873841  0.73487030     0.06200
C1485       C  0.86306070  0.18186147  0.73294421     0.25800
C1486       C  0.83885014  0.18901182  0.74116983    -0.11900
C1487       C  0.83435099  0.21292573  0.75189806    -0.25900
C1488       C  0.85514013  0.22888593  0.75575320     0.36600
C1489       C  0.90800427  0.19361273  0.72217859     0.06200
F1490       F  0.86655871  0.15871017  0.72244952    -0.19700
H1491       H  0.82341277  0.17625114  0.73808457     0.16000
F1492       F  0.85214215  0.25226199  0.76588217    -0.23400
H1493       H  0.89430886  0.23516825  0.74902567     0.17800
C1494       C  0.90902307  0.18624170  0.69636352     0.25800
C1495       C  0.93214881  0.18269176  0.68404948    -0.11900
C1496       C  0.95493632  0.18684662  0.69685542    -0.25900
C1497       C  0.95404384  0.19462612  0.72256271     0.36700
C1498       C  0.93077973  0.19794614  0.73505285    -0.27600
F1499       F  0.88763840  0.18345225  0.68262765    -0.19700
H1500       H  0.93219586  0.17701794  0.66415787     0.16000
F1501       F  0.97556224  0.19827528  0.73582853    -0.23400
H1502       H  0.93053567  0.20382200  0.75487674     0.17800
C1503       C  0.72229683  0.19136132  0.85410682    -0.27500
C1504       C  0.73314372  0.20198894  0.87601404     0.06200
C1505       C  0.75470153  0.21686441  0.87290221     0.25800
C1506       C  0.76439693  0.22175062  0.84836385    -0.11900
C1507       C  0.75299706  0.21183616  0.82630418    -0.25900
C1508       C  0.73191690  0.19621585  0.82961832     0.36600
C1509       C  0.72149419  0.19748153  0.90171720     0.06200
F1510       F  0.76637384  0.22677141  0.89355493    -0.19700
H1511       H  0.78036858  0.23410517  0.84655924     0.16000
F1512       F  0.71934132  0.18704490  0.80916236    -0.23400
H1513       H  0.70560358  0.17998648  0.85587366     0.17800
C1514       C  0.71523415  0.21745433  0.91846149     0.25800
C1515       C  0.70271719  0.21281929  0.94168718    -0.11900
C1516       C  0.69573735  0.18828178  0.94852443    -0.25900
C1517       C  0.70246738  0.16829184  0.93203774     0.36700
C1518       C  0.71515013  0.17289945  0.90902065    -0.27600
F1519       F  0.71997646  0.24160086  0.91183967    -0.19700
H1520       H  0.69760948  0.22856608  0.95386905     0.16000
F1521       F  0.69696109  0.14414927  0.93822464    -0.23400
H1522       H  0.71988990  0.15714443  0.89669955     0.17800
C1523       C  0.73896258  0.28874552  0.86821387    -0.27500
C1524       C  0.75687707  0.30782001  0.87039085     0.06200
C1525       C  0.76329106  0.32158608  0.84832773     0.25800
C1526       C  0.75362633  0.31479691  0.82442726    -0.11900
C1527       C  0.73739368  0.29418349  0.82201845    -0.25900
C1528       C  0.72907789  0.28213182  0.84448661     0.36600
C1529       C  0.77018463  0.31148519  0.89516399     0.06200
F1530       F  0.77965293  0.34096798  0.84966589    -0.19700
H1531       H  0.76028916  0.32458513  0.80760138     0.16000
F1532       F  0.71299132  0.26248589  0.84346626    -0.23400
H1533       H  0.73371413  0.27778121  0.88473014     0.17800
C1534       C  0.75704132  0.31135477  0.91862248     0.25800
C1535       C  0.77004965  0.31237523  0.94183760    -0.11900
C1536       C  0.79631413  0.31422133  0.94217089    -0.25900
C1537       C  0.80948347  0.31477255  0.91879729     0.36700
C1538       C  0.79655044  0.31313389  0.89561038    -0.27600
F1539       F  0.73155797  0.31074522  0.91912719    -0.19700
H1540       H  0.75952654  0.31240463  0.95960272     0.16000
F1541       F  0.83495077  0.31614846  0.91838195    -0.23400
H1542       H  0.80726376  0.31258078  0.87797889     0.17800
C1543       C  0.62735441  0.19988209  0.72521976    -0.27500
C1544       C  0.62473799  0.18432609  0.74677547     0.06200
C1545       C  0.64660567  0.17541463  0.75902451     0.25800
C1546       C  0.67032837  0.18344324  0.75103010    -0.11900
C1547       C  0.67281566  0.20082867  0.73093740    -0.25900
C1548       C  0.65109803  0.20808328  0.71732863     0.36600
C1549       C  0.59938739  0.17903998  0.75766052     0.06200
F1550       F  0.64501218  0.16070013  0.78015639    -0.19700
H1551       H  0.68657760  0.17761511  0.76203019     0.16000
F1552       F  0.65260425  0.22429718  0.69734559    -0.23400
H1553       H  0.61086819  0.20651497  0.71506902     0.17800
C1554       C  0.58205942  0.19874772  0.76244144     0.25800
C1555       C  0.55917040  0.19396001  0.77476983    -0.11900
C1556       C  0.55318941  0.16954446  0.78300369    -0.25900
C1557       C  0.57023427  0.14973487  0.77757737     0.36700
C1558       C  0.59295346  0.15447990  0.76494125    -0.27600
F1559       F  0.58781522  0.22288171  0.75649428    -0.19700
H1560       H  0.54655213  0.20960630  0.77879929     0.16000
F1561       F  0.56499162  0.12571198  0.78442426    -0.23400
H1562       H  0.60574377  0.13892232  0.76112797     0.17800
C1563       C  0.63532278  0.31127301  0.72119104    -0.27500
C1564       C  0.61557634  0.30233937  0.73650467     0.06200
C1565       C  0.62145204  0.28841590  0.75857678     0.25800
C1566       C  0.64649565  0.28231643  0.76424939    -0.11900
C1567       C  0.66617450  0.29000677  0.74809406    -0.25900
C1568       C  0.66035172  0.30524985  0.72684829     0.36600
C1569       C  0.58911260  0.30594923  0.72800348     0.06200
F1570       F  0.60294148  0.28015167  0.77428416    -0.19700
H1571       H  0.65041701  0.27051911  0.78066884     0.16000
F1572       F  0.67852866  0.31247751  0.71019546    -0.23400
H1573       H  0.63128096  0.32176977  0.70391985     0.17800
C1574       C  0.58023627  0.32978861  0.72042591     0.25800
C1575       C  0.55656274  0.33244689  0.70914907    -0.11900
C1576       C  0.54106202  0.31147458  0.70529242    -0.25900
C1577       C  0.54944962  0.28775742  0.71398297     0.36700
C1578       C  0.57328054  0.28508619  0.72514380    -0.27600
F1579       F  0.59465191  0.35048935  0.72356885    -0.19700
H1580       H  0.55052188  0.35098997  0.70294662     0.16000
F1581       F  0.53541898  0.26690398  0.71022722    -0.23400
H1582       H  0.57985913  0.26646715  0.73045830     0.17800
C1583       C  0.76196357  0.28926114  0.61106453    -0.27500
C1584       C  0.74418816  0.30874968  0.60787800     0.06200
C1585       C  0.73405500  0.32040535  0.62991151     0.25800
C1586       C  0.74126094  0.31237718  0.65433978    -0.11900
C1587       C  0.75814169  0.29208770  0.65752728    -0.25900
C1588       C  0.76873621  0.28083807  0.63545144     0.36600
C1589       C  0.73466156  0.31504570  0.58178424     0.06200
F1590       F  0.71564803  0.33817432  0.62802300    -0.19700
H1591       H  0.73228104  0.32104050  0.67079397     0.16000
F1592       F  0.78455604  0.26069910  0.63720726    -0.23400
H1593       H  0.77006943  0.27988913  0.59454463     0.17800
C1594       C  0.73022475  0.34012380  0.57409573     0.25800
C1595       C  0.71820432  0.34529522  0.55087223    -0.11900
C1596       C  0.71118882  0.32568777  0.53441942    -0.25900
C1597       C  0.71741515  0.30077120  0.54112234     0.36700
C1598       C  0.72874893  0.29555421  0.56464874    -0.27600
F1599       F  0.73737389  0.35965774  0.58902973    -0.19700
H1600       H  0.71396335  0.36467314  0.54591898     0.16000
F1601       F  0.71087999  0.28126165  0.52584661    -0.23400
H1602       H  0.73188455  0.27606698  0.56992957     0.17800
C1603       C  0.77261498  0.18201794  0.62922223    -0.27500
C1604       C  0.75843230  0.19047615  0.60819142     0.06200
C1605       C  0.73632940  0.20456985  0.61299197     0.25800
C1606       C  0.72983280  0.21144990  0.63808290    -0.11900
C1607       C  0.74492708  0.20415315  0.65895429    -0.25900
C1608       C  0.76594073  0.18853354  0.65423991     0.36600
C1609       C  0.76790524  0.18511254  0.58176333     0.06200
F1610       F  0.72112746  0.21195719  0.59355691    -0.19700
H1611       H  0.71349471  0.22343920  0.64108710     0.16000
F1612       F  0.78134321  0.18119270  0.67351944    -0.23400
H1613       H  0.78978695  0.17126948  0.62626649     0.17800
C1614       C  0.76918068  0.20399031  0.56281381     0.25800
C1615       C  0.78188894  0.19934915  0.53968273    -0.11900
C1616       C  0.79406180  0.17611118  0.53515826    -0.25900
C1617       C  0.79180040  0.15698770  0.55361158     0.36700
C1618       C  0.77865309  0.16140524  0.57636256    -0.27600
F1619       F  0.75977445  0.22745418  0.56718369    -0.19700
H1620       H  0.78327319  0.21442790  0.52584111     0.16000
F1621       F  0.80258013  0.13399904  0.54993096    -0.23400
H1622       H  0.77759668  0.14635595  0.59027308     0.17800
C1623       C  0.33329182  0.78200149  0.92029797    -0.27500
C1624       C  0.30807335  0.77633423  0.91518909     0.06200
C1625       C  0.28958334  0.78268405  0.93341420     0.25800
C1626       C  0.29621847  0.79487396  0.95606584    -0.11900
C1627       C  0.32131772  0.80134449  0.96078784    -0.25900
C1628       C  0.33990637  0.79445227  0.94279875     0.36600
C1629       C  0.30097909  0.76529121  0.89022329     0.06200
F1630       F  0.26493901  0.77831029  0.92872516    -0.19700
H1631       H  0.28152336  0.80014676  0.96947622     0.16000
F1632       F  0.36448633  0.79962579  0.94695778    -0.23400
H1633       H  0.34788091  0.77700953  0.90666035     0.17800
C1634       C  0.30919480  0.77646230  0.86743337     0.25800
C1635       C  0.30126275  0.76711575  0.84397740    -0.11900
C1636       C  0.28429739  0.74685146  0.84250775    -0.25900
C1637       C  0.27644390  0.73539687  0.86531507     0.36700
C1638       C  0.28494334  0.74441840  0.88893267    -0.27600
F1639       F  0.32357376  0.79746077  0.86781206    -0.19700
H1640       H  0.30740541  0.77688119  0.82693068     0.16000
F1641       F  0.25978636  0.71626522  0.86489793    -0.23400
H1642       H  0.27847451  0.73548359  0.90632174     0.17800
C1643       C  0.19324146  0.75173354  0.88243057    -0.27500
C1644       C  0.18132188  0.72833355  0.88456201     0.06200
C1645       C  0.17431432  0.71569540  0.86212433     0.25800
C1646       C  0.18072299  0.72543821  0.83816192    -0.11900
C1647       C  0.19457793  0.74783159  0.83596450    -0.25900
C1648       C  0.19975201  0.76147337  0.85838934     0.36600
C1649       C  0.17805657  0.71599841  0.90986513     0.06200
F1650       F  0.16321868  0.69280796  0.86337797    -0.19700
H1651       H  0.17653877  0.71428654  0.82140214     0.16000
F1652       F  0.21232459  0.78352085  0.85719768    -0.23400
H1653       H  0.19838194  0.76201831  0.89947512     0.17800
C1654       C  0.19877177  0.71198024  0.92609955     0.25800
C1655       C  0.19619592  0.69754864  0.94836036    -0.11900
C1656       C  0.17304443  0.68662565  0.95466440    -0.25900
C1657       C  0.15212550  0.69153393  0.93898249     0.36700
C1658       C  0.15465660  0.70610127  0.91687738    -0.27600
F1659       F  0.22181713  0.72077820  0.91970228    -0.19700
H1660       H  0.21255901  0.69410497  0.96015288     0.16000
F1661       F  0.12915838  0.68234226  0.94505948    -0.23400
H1662       H  0.13837653  0.70926859  0.90489032     0.17800
C1663       C  0.20007440  0.87356575  0.76384300    -0.27500
C1664       C  0.18893976  0.87680285  0.73966728     0.06200
C1665       C  0.18357336  0.85506386  0.72528102     0.25800
C1666       C  0.18927313  0.83096892  0.73481526    -0.11900
C1667       C  0.20117627  0.82769493  0.75861657    -0.25900
C1668       C  0.20622917  0.84941222  0.77318395     0.36600
C1669       C  0.18391819  0.90269561  0.72911322     0.06200
F1670       F  0.17438198  0.85706829  0.70118651    -0.19700
H1671       H  0.18575982  0.81485455  0.72269802     0.16000
F1672       F  0.21765611  0.84739778  0.79623172    -0.23400
H1673       H  0.20437492  0.88985231  0.77542373     0.17800
C1674       C  0.16098278  0.90871838  0.71707837     0.25800
C1675       C  0.15716711  0.93232308  0.70570441    -0.11900
C1676       C  0.17583580  0.95090069  0.70627618    -0.25900
C1677       C  0.19841577  0.94533888  0.71927260     0.36700
C1678       C  0.20235697  0.92151254  0.73043214    -0.27600
F1679       F  0.14196664  0.89190914  0.71656785    -0.19700
H1680       H  0.13938391  0.93601922  0.69635849     0.16000
F1681       F  0.21708315  0.96251021  0.72050341    -0.23400
H1682       H  0.22019491  0.91753666  0.73956063     0.17800
C1683       C  0.28618337  0.87200323  0.75282454    -0.27500
C1684       C  0.30305265  0.87417195  0.77338270     0.06200
C1685       C  0.31363768  0.85195008  0.78358927     0.25800
C1686       C  0.30624203  0.82837485  0.77446458    -0.11900
C1687       C  0.28789777  0.82616804  0.75512385    -0.25900
C1688       C  0.27872971  0.84835941  0.74373284     0.36600
C1689       C  0.30794210  0.89936179  0.78517705     0.06200
F1690       F  0.33055517  0.85289496  0.80294963    -0.19700
H1691       H  0.31382579  0.81176194  0.78377294     0.16000
F1692       F  0.26114178  0.84733052  0.72509675    -0.23400
H1693       H  0.27750809  0.88867784  0.74469005     0.17800
C1694       C  0.31216961  0.92090479  0.77003951     0.25800
C1695       C  0.31515505  0.94465938  0.78143581    -0.11900
C1696       C  0.31463097  0.94730061  0.80812216    -0.25900
C1697       C  0.31075823  0.92582459  0.82327063     0.36700
C1698       C  0.30716690  0.90225666  0.81192084    -0.27600
F1699       F  0.31413571  0.91889123  0.74425529    -0.19700
H1700       H  0.31865426  0.96087489  0.76944692     0.16000
F1701       F  0.30991416  0.92776383  0.84914106    -0.23400
H1702       H  0.30335013  0.88629397  0.82413928     0.17800
C1703       C  0.31102094  0.69564861  0.59725988    -0.27500
C1704       C  0.31105412  0.72205252  0.59898872     0.06200
C1705       C  0.31513037  0.73612372  0.57651230     0.25800
C1706       C  0.31858186  0.72389069  0.55287850    -0.11900
C1707       C  0.31863147  0.69747887  0.55136672    -0.25900
C1708       C  0.31487470  0.68348890  0.57383403     0.36600
C1709       C  0.30565320  0.73424540  0.62419211     0.06200
F1710       F  0.31647217  0.76160394  0.57749501    -0.19700
H1711       H  0.32187056  0.73500825  0.53586760     0.16000
F1712       F  0.31425252  0.65795909  0.57301728    -0.23400
H1713       H  0.30755729  0.68434315  0.61410929     0.17800
C1714       C  0.28638257  0.75241223  0.62679271     0.25800
C1715       C  0.27825290  0.76017046  0.65108100    -0.11900
C1716       C  0.28904785  0.75000830  0.67339744    -0.25900
C1717       C  0.30971043  0.73334142  0.67073261     0.36700
C1718       C  0.31776271  0.72553004  0.64640225    -0.27600
F1719       F  0.27391318  0.76111836  0.60598766    -0.19700
H1720       H  0.26230772  0.77295883  0.65236119     0.16000
F1721       F  0.32109776  0.72320221  0.69155405    -0.23400
H1722       H  0.33284492  0.71174483  0.64493339     0.17800
C1723       C  0.15601406  0.77104620  0.59059645    -0.27500
C1724       C  0.18057118  0.76404946  0.59780012     0.06200
C1725       C  0.20031380  0.76877455  0.58038516     0.25800
C1726       C  0.19555465  0.78014963  0.55662376    -0.11900
C1727       C  0.17112426  0.78773165  0.54977901    -0.25900
C1728       C  0.15133629  0.78294166  0.56708639     0.36600
C1729       C  0.18576875  0.75277786  0.62364138     0.06200
F1730       F  0.22447566  0.76352674  0.58678835    -0.19700
H1731       H  0.21121650  0.78396602  0.54397385     0.16000
F1732       F  0.12733800  0.78959293  0.56123516    -0.23400
H1733       H  0.14031937  0.76735481  0.60322619     0.17800
C1734       C  0.17494854  0.76299985  0.64606254     0.25800
C1735       C  0.18253190  0.75440959  0.67022949    -0.11900
C1736       C  0.20129169  0.73562499  0.67285794    -0.25900
C1737       C  0.21066535  0.72411258  0.65045528     0.36700
C1738       C  0.20287777  0.73252700  0.62626314    -0.27600
F1739       F  0.15843949  0.78261868  0.64483772    -0.19700
H1740       H  0.17485852  0.76380496  0.68694168     0.16000
F1741       F  0.22833695  0.70556974  0.65178733    -0.23400
H1742       H  0.21092396  0.72364581  0.60944793     0.17800
C1743       C  0.32768524  0.63606415  0.75367832    -0.27500
C1744       C  0.31333705  0.61407849  0.75714386     0.06200
C1745       C  0.28977275  0.61667929  0.76933649     0.25800
C1746       C  0.28014824  0.64053033  0.77571564    -0.11900
C1747       C  0.29320135  0.66266351  0.76951512    -0.25900
C1748       C  0.31763673  0.66008241  0.75930935     0.36600
C1749       C  0.32136292  0.58931573  0.74538097     0.06200
F1750       F  0.27482553  0.59647187  0.77307766    -0.19700
H1751       H  0.26133332  0.64164066  0.78363600     0.16000
F1752       F  0.33141854  0.68072348  0.75370442    -0.23400
H1753       H  0.34635138  0.63481447  0.74545874     0.17800
C1754       C  0.33187300  0.58857077  0.72059165     0.25800
C1755       C  0.33615874  0.56562231  0.70812160    -0.11900
C1756       C  0.32968585  0.54258660  0.71950671    -0.25900
C1757       C  0.32011563  0.54302117  0.74462423     0.36700
C1758       C  0.31636879  0.56608926  0.75747996    -0.27600
F1759       F  0.33655038  0.61004628  0.70746369    -0.19700
H1760       H  0.34353811  0.56607727  0.68880875     0.16000
F1761       F  0.31436376  0.52124502  0.75676696    -0.23400
H1762       H  0.30908501  0.56573054  0.77681255     0.17800
C1763       C  0.21280363  0.56157616  0.78551062    -0.27500
C1764       C  0.19286048  0.57867278  0.78080228     0.06200
C1765       C  0.16825200  0.57092588  0.78675317     0.25800
C1766       C  0.16403649  0.54778545  0.79878461    -0.11900
C1767       C  0.18401491  0.53120028  0.80444306    -0.25900
C1768       C  0.20845743  0.53801735  0.79696894     0.36600
C1769       C  0.19786884  0.60466197  0.77060006     0.06200
F1770       F  0.14809309  0.58555017  0.78065796    -0.19700
H1771       H  0.14492304  0.54276367  0.80362715     0.16000
F1772       F  0.22828917  0.52249008  0.80181534    -0.23400
H1773       H  0.23194182  0.56675553  0.78103241     0.17800
C1774       C  0.18596201  0.62610568  0.78129233     0.25800
C1775       C  0.19151691  0.65039204  0.77246045    -0.11900
C1776       C  0.20956259  0.65430899  0.75315622    -0.25900
C1777       C  0.22138658  0.63281956  0.74230792     0.36700
C1778       C  0.21548194  0.60844453  0.75085808    -0.27600
F1779       F  0.17011913  0.62385813  0.80153360    -0.19700
H1780       H  0.18257221  0.66631687  0.78185338     0.16000
F1781       F  0.23942105  0.63526356  0.72409391    -0.23400
H1782       H  0.22506112  0.59246070  0.74224447     0.17800
loop_ 
_geom_bond_atom_site_label_1 
_geom_bond_atom_site_label_2 
_geom_bond_distance 
_geom_bond_site_symmetry_2 
_ccdc_geom_bond_type 
O1            C9   1.270       .  A
O1          Co21   2.036       .  S
O2           C10   1.266       .  A
O2          Co22   2.029       .  S
O3           C11   1.261       .  A
O3          Co23   1.968       .  S
O4           C12   1.262       .  A
O4          Co24   1.959       .  S
O5           C11   1.272       .  A
O5          Co22   2.034       .  S
O6           C12   1.281       .  A
O6          Co21   2.057       .  S
O7           C10   1.265       .  A
O7          Co24   1.981       .  S
O8            C9   1.264       .  A
O8          Co23   1.974       .  S
C9         C1776   1.505       .  S
C10        C1667   1.502       .  S
C11        C1647   1.492       .  S
C12        C1736   1.498       .  S
O13          C26   1.256       .  A
O13         Co21   1.969       .  S
O14          C27   1.241       .  A
O14         Co22   1.900       .  S
O15          C28   1.271       .  A
O15         Co23   2.026       .  S
O16          C29   1.285       .  A
O16         Co24   2.088       .  S
O17          C29   1.247       .  A
O17         Co22   1.917       .  S
O18          C28   1.264       .  A
O18         Co21   1.985       .  S
O19          C26   1.264       .  A
O19         Co24   2.019       .  S
O20          C27   1.282       .  A
O20         Co23   2.087       .  S
Co21         O25   2.095       .  S
Co22         O25   1.987       .  S
Co23         O25   2.131       .  S
Co24         O25   2.142       .  S
C26        C1716   1.492       .  S
C27        C1636   1.486       .  S
C28        C1747   1.500       .  S
C29        C1687   1.494       .  S
O30          C38   1.269       .  A
O30         Co50   2.019       .  S
O31          C39   1.271       .  A
O31         Co51   2.042       .  S
O32          C40   1.264       .  A
O32         Co52   1.973       .  S
O33          C41   1.261       .  A
O33         Co53   1.963       .  S
O34          C40   1.270       .  A
O34         Co51   2.020       .  S
O35          C41   1.271       .  A
O35         Co50   2.029       .  S
O36          C39   1.261       .  A
O36         Co53   1.963       .  S
O37          C38   1.265       .  A
O37         Co52   1.972       .  S
C38        C1607   1.487       .  S
C39        C1507   1.498       .  S
C40        C1487   1.494       .  S
C41        C1547   1.486       .  S
O42          C55   1.261       .  A
O42         Co50   1.965       .  S
O43          C56   1.262       .  A
O43         Co51   1.969       .  S
O44          C57   1.270       .  A
O44         Co52   2.025       .  S
O45          C58   1.269       .  A
O45         Co53   2.024       .  S
O46          C58   1.260       .  A
O46         Co51   1.964       .  S
O47          C57   1.262       .  A
O47         Co50   1.967       .  S
O48          C55   1.269       .  A
O48         Co53   2.023       .  S
O49          C56   1.270       .  A
O49         Co52   2.025       .  S
Co50         O54   2.118       .  S
Co51         O54   2.122       .  S
Co52         O54   2.125       .  S
Co53         O54   2.120       .  S
C55        C1567   1.483       .  S
C56        C1467   1.487       .  S
C57        C1587   1.491       .  S
C58        C1527   1.488       .  S
O59          C67   1.273       .  A
O59         Co79   1.935       .  S
O60          C68   1.270       .  A
O60         Co80   2.012       .  S
O61          C69   1.289       .  A
O61         Co81   2.036       .  S
O62          C70   1.268       .  A
O62         Co82   2.002       .  S
O63          C69   1.277       .  A
O63         Co80   1.934       .  S
O64          C70   1.266       .  A
O64         Co79   1.984       .  S
O65          C68   1.264       .  A
O65         Co82   1.986       .  S
O66          C67   1.291       .  A
O66         Co81   2.045       .  S
C67        C1427   1.494       .  S
C68        C1347   1.501       .  S
C69        C1336   1.485       .  S
C70        C1407   1.468       .  S
O71          C84   1.270       .  A
O71         Co79   1.990       .  S
O72          C85   1.250       .  A
O72         Co80   1.980       .  S
O73          C86   1.258       .  A
O73         Co81   2.022       .  S
O74          C87   1.281       .  A
O74         Co82   2.009       .  S
O75          C87   1.272       .  A
O75         Co80   1.987       .  S
O76          C86   1.246       .  A
O76         Co79   1.965       .  S
O77          C84   1.276       .  A
O77         Co82   2.004       .  S
O78          C85   1.257       .  A
O78         Co81   2.012       .  S
Co79         O83   1.965       .  S
Co80         O83   1.983       .  S
Co81         O83   2.263       .  S
Co82         O83   2.101       .  S
C84        C1396   1.480       .  S
C85        C1307   1.498       .  S
C86        C1447   1.493       .  S
C87        C1376   1.484       .  S
C88        C1276   1.497       .  S
C88          C89   1.419       .  A
C88          C93   1.422   1_554  A
C89        C1296   1.491   1_565  S
C89          C90   1.416   1_564  A
C90        C1236   1.483       .  S
C90          C91   1.413       .  A
C91        C1247   1.494       .  S
C91          C92   1.414   1_545  A
C92        C1187   1.490       .  S
C92          C93   1.421       .  A
C93        C1207   1.492       .  S
C94        C1327   1.490       .  S
C94          N95   1.362       .  A
C94          N99   1.360       .  A
N95          C96   1.362   1_565  A
C96        C1167   1.485       .  S
C96          N97   1.361       .  A
N97          C98   1.359   1_545  A
C98        C1287   1.493       .  S
C98          N99   1.357       .  A
C100       C1516   1.491       .  S
C100        N101   1.362       .  A
C100        N105   1.368       .  A
N101        C102   1.358       .  A
C102       C1227   1.485       .  S
C102        N103   1.353   1_556  A
N103        C104   1.356       .  A
C104       C1156   1.485       .  S
C104        N105   1.366   1_554  A
C106       C1696   1.483       .  S
C106        N107   1.359       .  A
C106        N111   1.367       .  A
N107        C108   1.357       .  A
C108       C1196   1.484       .  S
C108        N109   1.356   1_565  A
N109        C110   1.360       .  A
C110       C1136   1.489       .  S
C110        N111   1.367   1_545  A
C112       C1556   1.489       .  S
C112        N113   1.363       .  A
C112        N117   1.365       .  A
N113        C114   1.360       .  A
C114       C1256   1.490       .  S
C114        N115   1.357       .  A
N115        C116   1.359       .  A
C116       C1116   1.491       .  S
C116        N117   1.362       .  A
C118       C1436   1.496       .  S
C118        N119   1.360       .  A
C118        N123   1.366       .  A
N119        C120   1.356       .  A
C120       C1267   1.479       .  S
C120        N121   1.356       .  A
N121        C122   1.362       .  A
C122       C1087   1.496       .  S
C122        N123   1.369       .  A
C124       C1067   1.487       .  S
C124        N125   1.359       .  A
C124        N129   1.360       .  A
N125        C126   1.358       .  A
C126       C1216   1.491       .  S
C126        N127   1.359   1_554  A
N127        C128   1.361       .  A
C128       C1627   1.481       .  S
C128        N129   1.362   1_556  A
C130        C967   1.489       .  S
C130        C131   1.413       .  A
C130        C135   1.411   1_456  A
C131        C947   1.477       .  S
C131        C132   1.413   1_455  A
C132       C1047   1.490       .  S
C132        C133   1.413       .  A
C133       C1036   1.482   1_556  S
C133        C134   1.415   1_556  A
C134       C1007   1.481       .  S
C134        C135   1.415       .  A
C135        C987   1.487       .  S
C136       C1656   1.482       .  S
C136        N137   1.359       .  A
C136        N141   1.358       .  A
N137        C138   1.359       .  A
C138        C976   1.484       .  S
C138        N139   1.360   1_556  A
N139        C140   1.361       .  A
C140        C927   1.481       .  S
C140        N141   1.361   1_554  A
C142       C1767   1.492       .  S
C142        N143   1.368       .  A
C142        N147   1.363       .  A
N143        C144   1.365       .  A
C144        C907   1.479       .  S
C144        N145   1.354       .  A
N145        C146   1.353       .  A
C146        C956   1.488       .  S
C146        N147   1.359       .  A
C148        C887   1.499       .  S
C148        N149   1.370       .  A
C148        N153   1.362       .  A
N149        C150   1.369   1_455  A
C150       C1356   1.502       .  S
C150        N151   1.358       .  A
N151        C152   1.356   1_655  A
C152        C996   1.493       .  S
C152        N153   1.358       .  A
C154        C867   1.483       .  S
C154        N155   1.365       .  A
C154        N159   1.359       .  A
N155        C156   1.365       .  A
C156       C1416   1.488       .  S
C156        N157   1.359       .  A
N157        C158   1.355       .  A
C158       C1016   1.489       .  S
C158        N159   1.355       .  A
C160        C847   1.494       .  S
C160        N161   1.358       .  A
C160        N165   1.367   1_455  A
N161        C162   1.357   1_455  A
C162       C1056   1.493       .  S
C162        N163   1.357       .  A
N163        C164   1.362       .  A
C164       C1476   1.490       .  S
C164        N165   1.369       .  A
C166        C827   1.488       .  S
C166        N167   1.358       .  A
C166        N171   1.365   1_554  A
N167        C168   1.355   1_554  A
C168       C1027   1.487       .  S
C168        N169   1.358       .  A
N169        C170   1.359       .  A
C170       C1536   1.481       .  S
C170        N171   1.366       .  A
C172        C816   1.494       .  S
C172        C173   1.415       .  A
C172        C177   1.418       .  A
C173        C787   1.484       .  S
C173        C174   1.415       .  A
C174        C767   1.491       .  S
C174        C175   1.414       .  A
C175        C747   1.487       .  S
C175        C176   1.416       .  A
C176        C716   1.490       .  S
C176        C177   1.420       .  A
C177        C727   1.487       .  S
C178       C1576   1.489       .  S
C178        N179   1.359       .  A
C178        N183   1.366       .  A
N179        C180   1.357       .  A
C180        C807   1.494       .  S
C180        N181   1.359       .  A
N181        C182   1.362       .  A
C182        C687   1.493       .  S
C182        N183   1.366       .  A
C184        C667   1.488       .  S
C184        N185   1.358       .  A
C184        N189   1.366       .  A
N185        C186   1.356       .  A
C186        C707   1.492       .  S
C186        N187   1.359       .  A
N187        C188   1.361       .  A
C188       C1707   1.484       .  S
C188        N189   1.365       .  A
C190       C1387   1.489       .  S
C190        N191   1.357       .  A
C190        N195   1.368       .  A
N191        C192   1.355       .  A
C192        C776   1.491       .  S
C192        N193   1.358       .  A
N193        C194   1.362       .  A
C194        C647   1.494       .  S
C194        N195   1.368       .  A
C196        C627   1.497       .  S
C196        N197   1.353       .  A
C196        N201   1.367       .  A
N197        C198   1.351       .  A
C198        C756   1.476       .  S
C198        N199   1.358       .  A
N199        C200   1.366       .  A
C200       C1456   1.496       .  S
C200        N201   1.370       .  A
C202       C1756   1.495       .  S
C202        N203   1.361       .  A
C202        N207   1.370       .  A
N203        C204   1.355       .  A
C204        C736   1.473       .  S
C204        N205   1.352       .  A
N205        C206   1.358       .  A
C206        C607   1.488       .  S
C206        N207   1.369       .  A
C208       C1596   1.482       .  S
C208        N209   1.363       .  A
C208        N213   1.359       .  A
N209        C210   1.362       .  A
C210        C587   1.485       .  S
C210        N211   1.357       .  A
N211        C212   1.357       .  A
C212        C796   1.471       .  S
C212        N213   1.356       .  A
C214        C556   1.493       .  S
C214        C215   1.421   1_545  A
C214        C219   1.420       .  A
C215        C567   1.503       .  S
C215        C216   1.424   1_455  A
C216        C467   1.485       .  S
C216        C217   1.418       .  A
C217        C496   1.495       .  S
C217        C218   1.413   1_565  A
C218        C507   1.489       .  S
C218        C219   1.415   1_655  A
C219        C527   1.487       .  S
C220       C1496   1.489       .  S
C220        N221   1.359       .  A
C220        N225   1.369   1_655  A
N221        C222   1.354   1_655  A
C222        C536   1.483       .  S
C222        N223   1.354       .  A
N223        C224   1.360       .  A
C224        C456   1.495       .  S
C224        N225   1.369       .  A
C226        C427   1.485       .  S
C226        N227   1.365   1_545  A
C226        N231   1.357       .  A
N227        C228   1.366       .  A
C228       C1676   1.498       .  S
C228        N229   1.363       .  A
N229        C230   1.360       .  A
C230        C547   1.490       .  S
C230        N231   1.356   1_565  A
C232       C1727   1.495       .  S
C232        N233   1.361       .  A
C232        N237   1.369       .  A
N233        C234   1.358       .  A
C234        C576   1.487       .  S
C234        N235   1.360       .  A
N235        C236   1.364       .  A
C236        C407   1.507       .  S
C236        N237   1.369       .  A
C238       C1616   1.489       .  S
C238        N239   1.361       .  A
C238        N243   1.361       .  A
N239        C240   1.360       .  A
C240        C516   1.490       .  S
C240        N241   1.357       .  A
N241        C242   1.359       .  A
C242        C387   1.481       .  S
C242        N243   1.362       .  A
C244       C1316   1.500       .  S
C244        N245   1.363       .  A
C244        N249   1.369   1_565  A
N245        C246   1.360   1_565  A
C246        C487   1.495       .  S
C246        N247   1.359       .  A
N247        C248   1.361       .  A
C248        C367   1.501       .  S
C248        N249   1.369       .  A
C250       C1367   1.484       .  S
C250        N251   1.354       .  A
C250        N255   1.366   1_655  A
N251        C252   1.353   1_655  A
C252        C476   1.489       .  S
C252        N253   1.359       .  A
N253        C254   1.364       .  A
C254        C347   1.493       .  S
C254        N255   1.368       .  A
O256        C264   1.265       .  A
O256       Co276   1.997       .  S
O257        C265   1.319       .  A
O257       Co277   2.151       .  S
O258        C266   1.267       .  A
O258       Co278   1.874       .  S
O259        C267   1.272       .  A
O259       Co279   1.978       .  S
O260        C266   1.310       .  A
O260       Co277   2.114       .  S
O261        C267   1.276       .  A
O261       Co276   2.024       .  S
O262        C265   1.279       .  A
O262       Co279   1.853       .  S
O263        C264   1.265       .  A
O263       Co278   1.991       .  S
C264        C436   1.487       .  S
C265        C616   1.484       .  S
C266        C447   1.485       .  S
C267        C696   1.498       .  S
O268        C281   1.268       .  A
O268       Co276   1.974       .  S
O269        C282   1.272       .  A
O269       Co277   1.885       .  S
O270        C283   1.276       .  A
O270       Co278   2.027       .  S
O271        C284   1.257       .  A
O271       Co279   2.017       .  S
O272        C284   1.250       .  A
O272       Co277   1.972       .  S
O273        C283   1.268       .  A
O273       Co276   1.971       .  S
O274        C281   1.278       .  A
O274       Co279   2.033       .  S
O275        C282   1.308       .  A
O275       Co278   2.116       .  S
Co276       O280   2.019       .  S
Co277       O280   2.033       .  S
Co278       O280   1.985       .  S
Co279       O280   1.919       .  S
C281       C1107   1.490       .  S
C282        C856   1.484       .  S
C283       C1127   1.495       .  S
C284        C916   1.486       .  S
O285        C293   1.271       .  A
O285       Co305   1.955       .  S
O286        C294   1.259       .  A
O286       Co306   1.960       .  S
O287        C295   1.259       .  A
O287       Co307   2.010       .  S
O288        C296   1.277       .  A
O288       Co308   2.019       .  S
O289        C295   1.256       .  A
O289       Co306   1.975       .  S
O290        C296   1.285       .  A
O290       Co305   2.010       .  S
O291        C294   1.272       .  A
O291       Co308   2.030       .  S
O292        C293   1.282       .  A
O292       Co307   2.068       .  S
C293        C376   1.501       .  S
C294        C876   1.486       .  S
C295        C836   1.494       .  S
C296        C396   1.486       .  S
O297        C310   1.253       .  A
O297       Co305   2.002       .  S
O298        C311   1.277       .  A
O298       Co306   2.013       .  S
O299        C312   1.293       .  A
O299       Co307   2.054       .  S
O300        C313   1.256       .  A
O300       Co308   1.962       .  S
O301        C313   1.271       .  A
O301       Co306   2.045       .  S
O302        C312   1.269       .  A
O302       Co305   1.927       .  S
O303        C310   1.254       .  A
O303       Co308   1.979       .  S
O304        C311   1.271       .  A
O304       Co307   1.978       .  S
Co305       O309   1.961       .  S
Co306       O309   2.075       .  S
Co307       O309   2.175       .  S
Co308       O309   2.074       .  S
C310        C596   1.488       .  S
C311       C1147   1.488       .  S
C312       C1176   1.486       .  S
C313        C656   1.497       .  S
O314        C322   1.283       .  A
O314       Co334   2.012       .  S
O315        C323   1.257       .  A
O315       Co335   2.015       .  S
O316        C324   1.249       .  A
O316       Co336   1.975       .  S
O317        C325   1.266       .  A
O317       Co337   1.980       .  S
O318        C324   1.254       .  A
O318       Co335   1.992       .  S
O319        C325   1.275       .  A
O319       Co334   2.004       .  S
O320        C323   1.245       .  A
O320       Co337   1.968       .  S
O321        C322   1.275       .  A
O321       Co336   1.994       .  S
C322        C636   1.490       .  S
C323        C896   1.491       .  S
C324        C676   1.483       .  S
C325        C936   1.480       .  S
O326        C339   1.272       .  A
O326       Co334   2.020       .  S
O327        C340   1.288       .  A
O327       Co335   2.030       .  S
O328        C341   1.273       .  A
O328       Co336   2.019       .  S
O329        C342   1.272       .  A
O329       Co337   1.937       .  S
O330        C342   1.289       .  A
O330       Co335   2.037       .  S
O331        C341   1.261       .  A
O331       Co334   1.971       .  S
O332        C339   1.264       .  A
O332       Co337   1.980       .  S
O333        C340   1.280       .  A
O333       Co336   1.956       .  S
Co334       O338   2.097       .  S
Co335       O338   2.260       .  S
Co336       O338   1.982       .  S
Co337       O338   1.960       .  S
C339       C1076   1.471       .  S
C340        C416   1.501       .  S
C341       C1096   1.493       .  S
C342        C356   1.491       .  S
C343        C344   1.407       .  A
C343        C348   1.407       .  A
C343        H353   1.082       .  S
C344        C349   1.494       .  S
C344        C345   1.407       .  A
C345        C346   1.400       .  A
C345        F350   1.358       .  S
C346        C347   1.407       .  A
C346        H351   1.083       .  S
C347        C348   1.410       .  A
C348        F352   1.357       .  S
C349        C354   1.408       .  A
C349        C358   1.407       .  A
C354        C355   1.398       .  A
C354        F359   1.357       .  S
C355        C356   1.405       .  A
C355        H360   1.082       .  S
C356        C357   1.413       .  A
C357        C358   1.407       .  A
C357        F361   1.357       .  S
C358        H362   1.083       .  S
C363        C364   1.406       .  A
C363        C368   1.404       .  A
C363        H373   1.083       .  S
C364        C369   1.503       .  S
C364        C365   1.412       .  A
C365        C366   1.408       .  A
C365        F370   1.357       .  S
C366        C367   1.407       .  A
C366        H371   1.083       .  S
C367        C368   1.414       .  A
C368        F372   1.358       .  S
C369        C374   1.410       .  A
C369        C378   1.407       .  A
C374        C375   1.402       .  A
C374        F379   1.357       .  S
C375        C376   1.405       .  A
C375        H380   1.091       .  S
C376        C377   1.414       .  A
C377        C378   1.406       .  A
C377        F381   1.357       .  S
C378        H382   1.084       .  S
C383        C384   1.407       .  A
C383        C388   1.398       .  A
C383        H393   1.083       .  S
C384        C389   1.488       .  S
C384        C385   1.407       .  A
C385        C386   1.399       .  A
C385        F390   1.357       .  S
C386        C387   1.406       .  A
C386        H391   1.083       .  S
C387        C388   1.406       .  A
C388        F392   1.357       .  S
C389        C394   1.409       .  A
C389        C398   1.404       .  A
C394        C395   1.397       .  A
C394        F399   1.357       .  S
C395        C396   1.401       .  A
C395        H400   1.090       .  S
C396        C397   1.413       .  A
C397        C398   1.397       .  A
C397        F401   1.358       .  S
C398        H402   1.084       .  S
C403        C404   1.410       .  A
C403        C408   1.411       .  A
C403        H413   1.083       .  S
C404        C409   1.506       .  S
C404        C405   1.409       .  A
C405        C406   1.403       .  A
C405        F410   1.358       .  S
C406        C407   1.410       .  A
C406        H411   1.083       .  S
C407        C408   1.414       .  A
C408        F412   1.357       .  S
C409        C414   1.412       .  A
C409        C418   1.406       .  A
C414        C415   1.410       .  A
C414        F419   1.357       .  S
C415        C416   1.409       .  A
C415        H420   1.083       .  S
C416        C417   1.412       .  A
C417        C418   1.402       .  A
C417        F421   1.356       .  S
C418        H422   1.083       .  S
C423        C424   1.404       .  A
C423        C428   1.399       .  A
C423        H433   1.083       .  S
C424        C429   1.491       .  S
C424        C425   1.412       .  A
C425        C426   1.402       .  A
C425        F430   1.357       .  S
C426        C427   1.404       .  A
C426        H431   1.083       .  S
C427        C428   1.410       .  A
C428        F432   1.357       .  S
C429        C434   1.406       .  A
C429        C438   1.408       .  A
C434        C435   1.398       .  A
C434        F439   1.357       .  S
C435        C436   1.408       .  A
C435        H440   1.083       .  S
C436        C437   1.407       .  A
C437        C438   1.401       .  A
C437        F441   1.355       .  S
C438        H442   1.083       .  S
C443        C444   1.402       .  A
C443        C448   1.395       .  A
C443        H453   1.084       .  S
C444        C449   1.491       .  S
C444        C445   1.409       .  A
C445        C446   1.411       .  A
C445        F450   1.357       .  S
C446        C447   1.410       .  A
C446        H451   1.083       .  S
C447        C448   1.407       .  A
C448        F452   1.354       .  S
C449        C454   1.404       .  A
C449        C458   1.409       .  A
C454        C455   1.396       .  A
C454        F459   1.358       .  S
C455        C456   1.409       .  A
C455        H460   1.083       .  S
C456        C457   1.411       .  A
C457        C458   1.410       .  A
C457        F461   1.357       .  S
C458        H462   1.083       .  S
C463        C464   1.405       .  A
C463        C468   1.395       .  A
C463        H473   1.083       .  S
C464        C469   1.485       .  S
C464        C465   1.409   1_455  A
C465        C466   1.398       .  A
C465        F470   1.357       .  S
C466        C467   1.403       .  A
C466        H471   1.083       .  S
C467        C468   1.404   1_655  A
C468        F472   1.357       .  S
C469        C474   1.405   1_455  A
C469        C478   1.406       .  A
C474        C475   1.396       .  A
C474        F479   1.358       .  S
C475        C476   1.410   1_655  A
C475        H480   1.083       .  S
C476        C477   1.409       .  A
C477        C478   1.399       .  A
C477        F481   1.357       .  S
C478        H482   1.083       .  S
C483        C484   1.406   1_565  A
C483        C488   1.403       .  A
C483        H493   1.083       .  S
C484        C489   1.496       .  S
C484        C485   1.409       .  A
C485        C486   1.402       .  A
C485        F490   1.358       .  S
C486        C487   1.408       .  A
C486        H491   1.083       .  S
C487        C488   1.411   1_545  A
C488        F492   1.357       .  S
C489        C494   1.411   1_545  A
C489        C498   1.408       .  A
C494        C495   1.403       .  A
C494        F499   1.357       .  S
C495        C496   1.403       .  A
C495        H500   1.083       .  S
C496        C497   1.405   1_565  A
C497        C498   1.400       .  A
C497        F501   1.357       .  S
C498        H502   1.083       .  S
C503        C504   1.405       .  A
C503        C508   1.402       .  A
C503        H513   1.083       .  S
C504        C509   1.483       .  S
C504        C505   1.406       .  A
C505        C506   1.397       .  A
C505        F510   1.357       .  S
C506        C507   1.402       .  A
C506        H511   1.083       .  S
C507        C508   1.406       .  A
C508        F512   1.357       .  S
C509        C514   1.405       .  A
C509        C518   1.403       .  A
C514        C515   1.399       .  A
C514        F519   1.357       .  S
C515        C516   1.407       .  A
C515        H520   1.083       .  S
C516        C517   1.413       .  A
C517        C518   1.402       .  A
C517        F521   1.357       .  S
C518        H522   1.083       .  S
C523        C524   1.406   1_655  A
C523        C528   1.397       .  A
C523        H533   1.083       .  S
C524        C529   1.486       .  S
C524        C525   1.409       .  A
C525        C526   1.400       .  A
C525        F530   1.357       .  S
C526        C527   1.402       .  A
C526        H531   1.083       .  S
C527        C528   1.404   1_455  A
C528        F532   1.357       .  S
C529        C534   1.407   1_455  A
C529        C538   1.405       .  A
C534        C535   1.398       .  A
C534        F539   1.357       .  S
C535        C536   1.405   1_655  A
C535        H540   1.083       .  S
C536        C537   1.409       .  A
C537        C538   1.400       .  A
C537        F541   1.358       .  S
C538        H542   1.083       .  S
C543        C544   1.404       .  A
C543        C548   1.400       .  A
C543        H553   1.083       .  S
C544        C549   1.488       .  S
C544        C545   1.408   1_545  A
C545        C546   1.400       .  A
C545        F550   1.357       .  S
C546        C547   1.407       .  A
C546        H551   1.083       .  S
C547        C548   1.412   1_565  A
C548        F552   1.357       .  S
C549        C554   1.408   1_545  A
C549        C558   1.407       .  A
C554        C555   1.399       .  A
C554        F559   1.357       .  S
C555        C556   1.404   1_565  A
C555        H560   1.083       .  S
C556        C557   1.405       .  A
C557        C558   1.400       .  A
C557        F561   1.357       .  S
C558        H562   1.083       .  S
C563        C564   1.410       .  A
C563        C568   1.399       .  A
C563        H573   1.082       .  S
C564        C569   1.506       .  S
C564        C565   1.415       .  A
C565        C566   1.406       .  A
C565        F570   1.357       .  S
C566        C567   1.406       .  A
C566        H571   1.083       .  S
C567        C568   1.405       .  A
C568        F572   1.356       .  S
C569        C574   1.414       .  A
C569        C578   1.410       .  A
C574        C575   1.406       .  A
C574        F579   1.357       .  S
C575        C576   1.406       .  A
C575        H580   1.083       .  S
C576        C577   1.405       .  A
C577        C578   1.400       .  A
C577        F581   1.357       .  S
C578        H582   1.082       .  S
C583        C584   1.405       .  A
C583        C588   1.402       .  A
C583        H593   1.083       .  S
C584        C589   1.491       .  S
C584        C585   1.410       .  A
C585        C586   1.399       .  A
C585        F590   1.357       .  S
C586        C587   1.403       .  A
C586        H591   1.083       .  S
C587        C588   1.411       .  A
C588        F592   1.358       .  S
C589        C594   1.407       .  A
C589        C598   1.406       .  A
C594        C595   1.400       .  A
C594        F599   1.358       .  S
C595        C596   1.408       .  A
C595        H600   1.083       .  S
C596        C597   1.410       .  A
C597        C598   1.402       .  A
C597        F601   1.357       .  S
C598        H602   1.083       .  S
C603        C604   1.408       .  A
C603        C608   1.406       .  A
C603        H613   1.083       .  S
C604        C609   1.490       .  S
C604        C605   1.405       .  A
C605        C606   1.398       .  A
C605        F610   1.358       .  S
C606        C607   1.408       .  A
C606        H611   1.083       .  S
C607        C608   1.407       .  A
C608        F612   1.357       .  S
C609        C614   1.408       .  A
C609        C618   1.406       .  A
C614        C615   1.397       .  A
C614        F619   1.358       .  S
C615        C616   1.406       .  A
C615        H620   1.084       .  S
C616        C617   1.409       .  A
C617        C618   1.405       .  A
C617        F621   1.357       .  S
C618        H622   1.083       .  S
C623        C624   1.398       .  A
C623        C628   1.399       .  A
C623        H633   1.084       .  S
C624        C629   1.484       .  S
C624        C625   1.407       .  A
C625        C626   1.406       .  A
C625        F630   1.357       .  S
C626        C627   1.407       .  A
C626        H631   1.083       .  S
C627        C628   1.418       .  A
C628        F632   1.358       .  S
C629        C634   1.407       .  A
C629        C638   1.399       .  A
C634        C635   1.410       .  A
C634        F639   1.357       .  S
C635        C636   1.409       .  A
C635        H640   1.083       .  S
C636        C637   1.412       .  A
C637        C638   1.396       .  A
C637        F641   1.358       .  S
C638        H642   1.084       .  S
C643        C644   1.410       .  A
C643        C648   1.408       .  A
C643        H653   1.083       .  S
C644        C649   1.501       .  S
C644        C645   1.409       .  A
C645        C646   1.401       .  A
C645        F650   1.358       .  S
C646        C647   1.408       .  A
C646        H651   1.083       .  S
C647        C648   1.409       .  A
C648        F652   1.357       .  S
C649        C654   1.410       .  A
C649        C658   1.406       .  A
C654        C655   1.408       .  A
C654        F659   1.357       .  S
C655        C656   1.409       .  A
C655        H660   1.083       .  S
C656        C657   1.413       .  A
C657        C658   1.400       .  A
C657        F661   1.357       .  S
C658        H662   1.083       .  S
C663        C664   1.410       .  A
C663        C668   1.404       .  A
C663        H673   1.083       .  S
C664        C669   1.494       .  S
C664        C665   1.407       .  A
C665        C666   1.398       .  A
C665        F670   1.358       .  S
C666        C667   1.408       .  A
C666        H671   1.083       .  S
C667        C668   1.407       .  A
C668        F672   1.357       .  S
C669        C674   1.409       .  A
C669        C678   1.408       .  A
C674        C675   1.401       .  A
C674        F679   1.357       .  S
C675        C676   1.406       .  A
C675        H680   1.083       .  S
C676        C677   1.408       .  A
C677        C678   1.400       .  A
C677        F681   1.358       .  S
C678        H682   1.083       .  S
C683        C684   1.410       .  A
C683        C688   1.406       .  A
C683        H693   1.082       .  S
C684        C689   1.500       .  S
C684        C685   1.408       .  A
C685        C686   1.401       .  A
C685        F690   1.357       .  S
C686        C687   1.408       .  A
C686        H691   1.083       .  S
C687        C688   1.409       .  A
C688        F692   1.357       .  S
C689        C694   1.408       .  A
C689        C698   1.408       .  A
C694        C695   1.404       .  A
C694        F699   1.358       .  S
C695        C696   1.411       .  A
C695        H700   1.083       .  S
C696        C697   1.411       .  A
C697        C698   1.404       .  A
C697        F701   1.357       .  S
C698        H702   1.083       .  S
C703        C704   1.402       .  A
C703        C708   1.400       .  A
C703        H713   1.083       .  S
C704        C709   1.484       .  S
C704        C705   1.405       .  A
C705        C706   1.400       .  A
C705        F710   1.357       .  S
C706        C707   1.408       .  A
C706        H711   1.083       .  S
C707        C708   1.414       .  A
C708        F712   1.357       .  S
C709        C714   1.408       .  A
C709        C718   1.405       .  A
C714        C715   1.401       .  A
C714        F719   1.357       .  S
C715        C716   1.403       .  A
C715        H720   1.083       .  S
C716        C717   1.405       .  A
C717        C718   1.399       .  A
C717        F721   1.357       .  S
C718        H722   1.083       .  S
C723        C724   1.406       .  A
C723        C728   1.395       .  A
C723        H733   1.082       .  S
C724        C729   1.490       .  S
C724        C725   1.411       .  A
C725        C726   1.399       .  A
C725        F730   1.357       .  S
C726        C727   1.402       .  A
C726        H731   1.083       .  S
C727        C728   1.404       .  A
C728        F732   1.356       .  S
C729        C734   1.412       .  A
C729        C738   1.407       .  A
C734        C735   1.398       .  A
C734        F739   1.357       .  S
C735        C736   1.401       .  A
C735        H740   1.083       .  S
C736        C737   1.405       .  A
C737        C738   1.399       .  A
C737        F741   1.358       .  S
C738        H742   1.083       .  S
C743        C744   1.405       .  A
C743        C748   1.398       .  A
C743        H753   1.083       .  S
C744        C749   1.478       .  S
C744        C745   1.404       .  A
C745        C746   1.398       .  A
C745        F750   1.357       .  S
C746        C747   1.404       .  A
C746        H751   1.083       .  S
C747        C748   1.404       .  A
C748        F752   1.357       .  S
C749        C754   1.408       .  A
C749        C758   1.400       .  A
C754        C755   1.405       .  A
C754        F759   1.358       .  S
C755        C756   1.405       .  A
C755        H760   1.083       .  S
C756        C757   1.407       .  A
C757        C758   1.394       .  A
C757        F761   1.358       .  S
C758        H762   1.084       .  S
C763        C764   1.405       .  A
C763        C768   1.399       .  A
C763        H773   1.083       .  S
C764        C769   1.485       .  S
C764        C765   1.408       .  A
C765        C766   1.399       .  A
C765        F770   1.357       .  S
C766        C767   1.403       .  A
C766        H771   1.083       .  S
C767        C768   1.404       .  A
C768        F772   1.357       .  S
C769        C774   1.405       .  A
C769        C778   1.404       .  A
C774        C775   1.398       .  A
C774        F779   1.358       .  S
C775        C776   1.409       .  A
C775        H780   1.083       .  S
C776        C777   1.412       .  A
C777        C778   1.401       .  A
C777        F781   1.357       .  S
C778        H782   1.083       .  S
C783        C784   1.407       .  A
C783        C788   1.395       .  A
C783        H793   1.083       .  S
C784        C789   1.484       .  S
C784        C785   1.408       .  A
C785        C786   1.396       .  A
C785        F790   1.357       .  S
C786        C787   1.402       .  A
C786        H791   1.083       .  S
C787        C788   1.402       .  A
C788        F792   1.357       .  S
C789        C794   1.408       .  A
C789        C798   1.408       .  A
C794        C795   1.395       .  A
C794        F799   1.357       .  S
C795        C796   1.401       .  A
C795        H800   1.084       .  S
C796        C797   1.404       .  A
C797        C798   1.399       .  A
C797        F801   1.358       .  S
C798        H802   1.083       .  S
C803        C804   1.405       .  A
C803        C808   1.401       .  A
C803        H813   1.083       .  S
C804        C809   1.490       .  S
C804        C805   1.407       .  A
C805        C806   1.400       .  A
C805        F810   1.358       .  S
C806        C807   1.409       .  A
C806        H811   1.083       .  S
C807        C808   1.412       .  A
C808        F812   1.357       .  S
C809        C814   1.409       .  A
C809        C818   1.406       .  A
C814        C815   1.401       .  A
C814        F819   1.357       .  S
C815        C816   1.404       .  A
C815        H820   1.083       .  S
C816        C817   1.405       .  A
C817        C818   1.400       .  A
C817        F821   1.357       .  S
C818        H822   1.083       .  S
C823        C824   1.405       .  A
C823        C828   1.397       .  A
C823        H833   1.083       .  S
C824        C829   1.501       .  S
C824        C825   1.415       .  A
C825        C826   1.406       .  A
C825        F830   1.354       .  S
C826        C827   1.404       .  A
C826        H831   1.083       .  S
C827        C828   1.409       .  A
C828        F832   1.358       .  S
C829        C834   1.409       .  A
C829        C838   1.410       .  A
C834        C835   1.405       .  A
C834        F839   1.357       .  S
C835        C836   1.411       .  A
C835        H840   1.083       .  S
C836        C837   1.408       .  A
C837        C838   1.401       .  A
C837        F841   1.357       .  S
C838        H842   1.083       .  S
C843        C844   1.401       .  A
C843        C848   1.401       .  A
C843        H853   1.083       .  S
C844        C849   1.488       .  S
C844        C845   1.408       .  A
C845        C846   1.408       .  A
C845        F850   1.357       .  S
C846        C847   1.407       .  A
C846        H851   1.083       .  S
C847        C848   1.413       .  A
C848        F852   1.358       .  S
C849        C854   1.405       .  A
C849        C858   1.406       .  A
C854        C855   1.401       .  A
C854        F859   1.358       .  S
C855        C856   1.406       .  A
C855        H860   1.084       .  S
C856        C857   1.408       .  A
C857        C858   1.407       .  A
C857        F861   1.357       .  S
C858        H862   1.083       .  S
C863        C864   1.401       .  A
C863        C868   1.396       .  A
C863        H873   1.083       .  S
C864        C869   1.483       .  S
C864        C865   1.408       .  A
C865        C866   1.404       .  A
C865        F870   1.357       .  S
C866        C867   1.406       .  A
C866        H871   1.083       .  S
C867        C868   1.409       .  A
C868        F872   1.358       .  S
C869        C874   1.405       .  A
C869        C878   1.404       .  A
C874        C875   1.396       .  A
C874        F879   1.358       .  S
C875        C876   1.407       .  A
C875        H880   1.083       .  S
C876        C877   1.411       .  A
C877        C878   1.403       .  A
C877        F881   1.357       .  S
C878        H882   1.083       .  S
C883        C884   1.405       .  A
C883        C888   1.401       .  A
C883        H893   1.083       .  S
C884        C889   1.502       .  S
C884        C885   1.413       .  A
C885        C886   1.408       .  A
C885        F890   1.357       .  S
C886        C887   1.407       .  A
C886        H891   1.083       .  S
C887        C888   1.413       .  A
C888        F892   1.357       .  S
C889        C894   1.411       .  A
C889        C898   1.408       .  A
C894        C895   1.405       .  A
C894        F899   1.356       .  S
C895        C896   1.407       .  A
C895        H900   1.083       .  S
C896        C897   1.410       .  A
C897        C898   1.401       .  A
C897        F901   1.358       .  S
C898        H902   1.083       .  S
C903        C904   1.406       .  A
C903        C908   1.397       .  A
C903        H913   1.083       .  S
C904        C909   1.494       .  S
C904        C905   1.412       .  A
C905        C906   1.405       .  A
C905        F910   1.357       .  S
C906        C907   1.403       .  A
C906        H911   1.083       .  S
C907        C908   1.406       .  A
C908        F912   1.358       .  S
C909        C914   1.410       .  A
C909        C918   1.405       .  A
C914        C915   1.401       .  A
C914        F919   1.357       .  S
C915        C916   1.406       .  A
C915        H920   1.083       .  S
C916        C917   1.413       .  A
C917        C918   1.400       .  A
C917        F921   1.358       .  S
C918        H922   1.083       .  S
C923        C924   1.404       .  A
C923        C928   1.395       .  A
C923        H933   1.084       .  S
C924        C929   1.481       .  S
C924        C925   1.405       .  A
C925        C926   1.402       .  A
C925        F930   1.357       .  S
C926        C927   1.408       .  A
C926        H931   1.083       .  S
C927        C928   1.408       .  A
C928        F932   1.358       .  S
C929        C934   1.408       .  A
C929        C938   1.400       .  A
C934        C935   1.405       .  A
C934        F939   1.357       .  S
C935        C936   1.405       .  A
C935        H940   1.083       .  S
C936        C937   1.411       .  A
C937        C938   1.390       .  A
C937        F941   1.359       .  S
C938        H942   1.084       .  S
C943        C944   1.406       .  A
C943        C948   1.395       .  A
C943        H953   1.083       .  S
C944        C949   1.481       .  S
C944        C945   1.408       .  A
C945        C946   1.397       .  A
C945        F950   1.357       .  S
C946        C947   1.400       .  A
C946        H951   1.083       .  S
C947        C948   1.402       .  A
C948        F952   1.358       .  S
C949        C954   1.407       .  A
C949        C958   1.401       .  A
C954        C955   1.400       .  A
C954        F959   1.358       .  S
C955        C956   1.408       .  A
C955        H960   1.083       .  S
C956        C957   1.413       .  A
C957        C958   1.394       .  A
C957        F961   1.357       .  S
C958        H962   1.084       .  S
C963        C964   1.406   1_554  A
C963        C968   1.400       .  A
C963        H973   1.083       .  S
C964        C969   1.485       .  S
C964        C965   1.408       .  A
C965        C966   1.399       .  A
C965        F970   1.357       .  S
C966        C967   1.402       .  A
C966        H971   1.083       .  S
C967        C968   1.404   1_556  A
C968        F972   1.357       .  S
C969        C974   1.407   1_556  A
C969        C978   1.404       .  A
C974        C975   1.400       .  A
C974        F979   1.358       .  S
C975        C976   1.406   1_554  A
C975        H980   1.083       .  S
C976        C977   1.409       .  A
C977        C978   1.400       .  A
C977        F981   1.357       .  S
C978        H982   1.083       .  S
C983        C984   1.407       .  A
C983        C988   1.401       .  A
C983        H993   1.083       .  S
C984        C989   1.490       .  S
C984        C985   1.410   1_455  A
C985        C986   1.398       .  A
C985        F990   1.357       .  S
C986        C987   1.401       .  A
C986        H991   1.083       .  S
C987        C988   1.404   1_655  A
C988        F992   1.357       .  S
C989        C994   1.407   1_455  A
C989        C998   1.406       .  A
C994        C995   1.397       .  A
C994        F999   1.357       .  S
C995        C996   1.408   1_655  A
C995       H1000   1.083       .  S
C996        C997   1.412       .  A
C997        C998   1.403       .  A
C997       F1001   1.357       .  S
C998       H1002   1.083       .  S
C1003      C1004   1.408       .  A
C1003      C1008   1.398       .  A
C1003      H1013   1.083       .  S
C1004      C1009   1.489       .  S
C1004      C1005   1.410       .  A
C1005      C1006   1.398       .  A
C1005      F1010   1.357       .  S
C1006      C1007   1.400       .  A
C1006      H1011   1.083       .  S
C1007      C1008   1.402       .  A
C1008      F1012   1.357       .  S
C1009      C1014   1.408       .  A
C1009      C1018   1.405       .  A
C1014      C1015   1.398       .  A
C1014      F1019   1.358       .  S
C1015      C1016   1.408       .  A
C1015      H1020   1.083       .  S
C1016      C1017   1.411       .  A
C1017      C1018   1.399       .  A
C1017      F1021   1.357       .  S
C1018      H1022   1.083       .  S
C1023      C1024   1.403   1_554  A
C1023      C1028   1.400       .  A
C1023      H1033   1.083       .  S
C1024      C1029   1.482       .  S
C1024      C1025   1.406       .  A
C1025      C1026   1.398       .  A
C1025      F1030   1.357       .  S
C1026      C1027   1.406       .  A
C1026      H1031   1.083       .  S
C1027      C1028   1.413   1_556  A
C1028      F1032   1.358       .  S
C1029      C1034   1.407       .  A
C1029      C1038   1.405   1_556  A
C1034      C1035   1.397       .  A
C1034      F1039   1.357       .  S
C1035      C1036   1.400   1_556  A
C1035      H1040   1.083       .  S
C1036      C1037   1.404       .  A
C1037      C1038   1.399       .  A
C1037      F1041   1.357       .  S
C1038      H1042   1.083       .  S
C1043      C1044   1.409       .  A
C1043      C1048   1.399   1_655  A
C1043      H1053   1.083   1_655  S
C1044      C1049   1.496       .  S
C1044      C1045   1.411       .  A
C1045      C1046   1.403       .  A
C1045      F1050   1.357       .  S
C1046      C1047   1.404       .  A
C1046      H1051   1.083       .  S
C1047      C1048   1.401   1_655  A
C1048      F1052   1.357       .  S
C1049      C1054   1.408   1_655  A
C1049      C1058   1.408       .  A
C1054      C1055   1.396       .  A
C1054      F1059   1.357       .  S
C1055      C1056   1.406   1_455  A
C1055      H1060   1.083       .  S
C1056      C1057   1.413       .  A
C1057      C1058   1.406       .  A
C1057      F1061   1.358       .  S
C1058      H1062   1.083       .  S
C1063      C1064   1.407       .  A
C1063      C1068   1.402       .  A
C1063      H1073   1.083       .  S
C1064      C1069   1.487       .  S
C1064      C1065   1.405       .  A
C1065      C1066   1.397       .  A
C1065      F1070   1.357       .  S
C1066      C1067   1.407       .  A
C1066      H1071   1.083       .  S
C1067      C1068   1.410       .  A
C1068      F1072   1.357       .  S
C1069      C1074   1.407       .  A
C1069      C1078   1.407       .  A
C1074      C1075   1.401       .  A
C1074      F1079   1.357       .  S
C1075      C1076   1.404       .  A
C1075      H1080   1.084       .  S
C1076      C1077   1.401       .  A
C1077      C1078   1.398       .  A
C1077      F1081   1.354       .  S
C1078      H1082   1.083       .  S
C1083      C1084   1.406       .  A
C1083      C1088   1.403       .  A
C1083      H1093   1.083       .  S
C1084      C1089   1.486       .  S
C1084      C1085   1.401       .  A
C1085      C1086   1.402       .  A
C1085      F1090   1.357       .  S
C1086      C1087   1.412       .  A
C1086      H1091   1.083       .  S
C1087      C1088   1.411       .  A
C1088      F1092   1.357       .  S
C1089      C1094   1.399       .  A
C1089      C1098   1.411       .  A
C1094      C1095   1.390       .  A
C1094      F1099   1.359       .  S
C1095      C1096   1.413       .  A
C1095      H1100   1.084       .  S
C1096      C1097   1.408       .  A
C1097      C1098   1.413       .  A
C1097      F1101   1.356       .  S
C1098      H1102   1.083       .  S
C1103      C1104   1.404       .  A
C1103      C1108   1.393       .  A
C1103      H1113   1.083       .  S
C1104      C1109   1.497       .  S
C1104      C1105   1.411       .  A
C1105      C1106   1.409       .  A
C1105      F1110   1.357       .  S
C1106      C1107   1.408       .  A
C1106      H1111   1.083       .  S
C1107      C1108   1.411       .  A
C1108      F1112   1.358       .  S
C1109      C1114   1.409       .  A
C1109      C1118   1.409       .  A
C1114      C1115   1.396       .  A
C1114      F1119   1.358       .  S
C1115      C1116   1.405       .  A
C1115      H1120   1.083       .  S
C1116      C1117   1.410       .  A
C1117      C1118   1.407       .  A
C1117      F1121   1.357       .  S
C1118      H1122   1.082       .  S
C1123      C1124   1.407       .  A
C1123      C1128   1.406       .  A
C1123      H1133   1.083       .  S
C1124      C1129   1.498       .  S
C1124      C1125   1.410       .  A
C1125      C1126   1.398       .  A
C1125      F1130   1.357       .  S
C1126      C1127   1.407       .  A
C1126      H1131   1.083       .  S
C1127      C1128   1.414       .  A
C1128      F1132   1.357       .  S
C1129      C1134   1.408       .  A
C1129      C1138   1.411       .  A
C1134      C1135   1.398       .  A
C1134      F1139   1.357       .  S
C1135      C1136   1.406       .  A
C1135      H1140   1.083       .  S
C1136      C1137   1.408       .  A
C1137      C1138   1.408       .  A
C1137      F1141   1.357       .  S
C1138      H1142   1.083       .  S
C1143      C1144   1.411       .  A
C1143      C1148   1.405       .  A
C1143      H1153   1.083       .  S
C1144      C1149   1.497       .  S
C1144      C1145   1.406       .  A
C1145      C1146   1.394       .  A
C1145      F1150   1.354       .  S
C1146      C1147   1.408       .  A
C1146      H1151   1.083       .  S
C1147      C1148   1.407       .  A
C1148      F1152   1.357       .  S
C1149      C1154   1.409       .  A
C1149      C1158   1.412       .  A
C1154      C1155   1.396       .  A
C1154      F1159   1.358       .  S
C1155      C1156   1.406       .  A
C1155      H1160   1.083       .  S
C1156      C1157   1.405       .  A
C1157      C1158   1.405       .  A
C1157      F1161   1.357       .  S
C1158      H1162   1.082       .  S
C1163      C1164   1.407       .  A
C1163      C1168   1.402       .  A
C1163      H1173   1.083       .  S
C1164      C1169   1.491       .  S
C1164      C1165   1.407       .  A
C1165      C1166   1.398       .  A
C1165      F1170   1.358       .  S
C1166      C1167   1.405       .  A
C1166      H1171   1.083       .  S
C1167      C1168   1.409       .  A
C1168      F1172   1.357       .  S
C1169      C1174   1.408       .  A
C1169      C1178   1.405       .  A
C1174      C1175   1.403       .  A
C1174      F1179   1.357       .  S
C1175      C1176   1.408       .  A
C1175      H1180   1.083       .  S
C1176      C1177   1.409       .  A
C1177      C1178   1.397       .  A
C1177      F1181   1.357       .  S
C1178      H1182   1.083       .  S
C1183      C1184   1.407       .  A
C1183      C1188   1.399       .  A
C1183      H1193   1.083       .  S
C1184      C1189   1.488       .  S
C1184      C1185   1.409   1_565  A
C1185      C1186   1.399       .  A
C1185      F1190   1.357       .  S
C1186      C1187   1.403   1_545  A
C1186      H1191   1.083       .  S
C1187      C1188   1.403       .  A
C1188      F1192   1.357       .  S
C1189      C1194   1.408   1_565  A
C1189      C1198   1.406       .  A
C1194      C1195   1.400       .  A
C1194      F1199   1.357       .  S
C1195      C1196   1.406   1_545  A
C1195      H1200   1.083       .  S
C1196      C1197   1.408       .  A
C1197      C1198   1.400       .  A
C1197      F1201   1.357       .  S
C1198      H1202   1.083       .  S
C1203      C1204   1.405       .  A
C1203      C1208   1.401       .  A
C1203      H1213   1.083       .  S
C1204      C1209   1.486       .  S
C1204      C1205   1.408   1_556  A
C1205      C1206   1.397       .  A
C1205      F1210   1.358       .  S
C1206      C1207   1.403   1_554  A
C1206      H1211   1.083       .  S
C1207      C1208   1.407       .  A
C1208      F1212   1.357       .  S
C1209      C1214   1.407       .  A
C1209      C1218   1.402   1_556  A
C1214      C1215   1.403       .  A
C1214      F1219   1.357       .  S
C1215      C1216   1.410   1_556  A
C1215      H1220   1.083       .  S
C1216      C1217   1.412       .  A
C1217      C1218   1.396       .  A
C1217      F1221   1.357       .  S
C1218      H1222   1.084       .  S
C1223      C1224   1.403   1_554  A
C1223      C1228   1.397       .  A
C1223      H1233   1.083       .  S
C1224      C1229   1.483       .  S
C1224      C1225   1.407       .  A
C1225      C1226   1.400       .  A
C1225      F1230   1.357       .  S
C1226      C1227   1.406       .  A
C1226      H1231   1.083       .  S
C1227      C1228   1.411   1_556  A
C1228      F1232   1.358       .  S
C1229      C1234   1.408       .  A
C1229      C1238   1.405   1_556  A
C1234      C1235   1.399       .  A
C1234      F1239   1.357       .  S
C1235      C1236   1.401       .  A
C1235      H1240   1.083       .  S
C1236      C1237   1.403   1_556  A
C1237      C1238   1.397       .  A
C1237      F1241   1.357       .  S
C1238      H1242   1.083       .  S
C1243      C1244   1.403       .  A
C1243      C1248   1.401       .  A
C1243      H1253   1.083       .  S
C1244      C1249   1.482       .  S
C1244      C1245   1.406       .  A
C1245      C1246   1.402       .  A
C1245      F1250   1.357       .  S
C1246      C1247   1.405       .  A
C1246      H1251   1.083       .  S
C1247      C1248   1.406       .  A
C1248      F1252   1.357       .  S
C1249      C1254   1.404       .  A
C1249      C1258   1.402       .  A
C1254      C1255   1.403       .  A
C1254      F1259   1.357       .  S
C1255      C1256   1.407       .  A
C1255      H1260   1.083       .  S
C1256      C1257   1.412       .  A
C1257      C1258   1.401       .  A
C1257      F1261   1.358       .  S
C1258      H1262   1.083       .  S
C1263      C1264   1.407       .  A
C1263      C1268   1.398       .  A
C1263      H1273   1.082       .  S
C1264      C1269   1.499       .  S
C1264      C1265   1.414       .  A
C1265      C1266   1.405       .  A
C1265      F1270   1.357       .  S
C1266      C1267   1.404       .  A
C1266      H1271   1.083       .  S
C1267      C1268   1.404       .  A
C1268      F1272   1.358       .  S
C1269      C1274   1.413       .  A
C1269      C1278   1.409       .  A
C1274      C1275   1.400       .  A
C1274      F1279   1.357       .  S
C1275      C1276   1.403       .  A
C1275      H1280   1.083       .  S
C1276      C1277   1.406       .  A
C1277      C1278   1.402       .  A
C1277      F1281   1.357       .  S
C1278      H1282   1.082       .  S
C1283      C1284   1.403   1_565  A
C1283      C1288   1.400       .  A
C1283      H1293   1.083       .  S
C1284      C1289   1.486       .  S
C1284      C1285   1.406       .  A
C1285      C1286   1.400       .  A
C1285      F1290   1.357       .  S
C1286      C1287   1.408   1_545  A
C1286      H1291   1.083       .  S
C1287      C1288   1.413       .  A
C1288      F1292   1.357       .  S
C1289      C1294   1.408   1_545  A
C1289      C1298   1.406       .  A
C1294      C1295   1.401       .  A
C1294      F1299   1.358       .  S
C1295      C1296   1.404   1_565  A
C1295      H1300   1.083       .  S
C1296      C1297   1.404       .  A
C1297      C1298   1.399       .  A
C1297      F1301   1.357       .  S
C1298      H1302   1.083       .  S
C1303      C1304   1.407       .  A
C1303      C1308   1.403       .  A
C1303      H1313   1.083       .  S
C1304      C1309   1.505       .  S
C1304      C1305   1.411       .  A
C1305      C1306   1.410       .  A
C1305      F1310   1.356       .  S
C1306      C1307   1.410       .  A
C1306      H1311   1.083       .  S
C1307      C1308   1.410       .  A
C1308      F1312   1.357       .  S
C1309      C1314   1.409       .  A
C1309      C1318   1.411       .  A
C1314      C1315   1.404       .  A
C1314      F1319   1.357       .  S
C1315      C1316   1.408       .  A
C1315      H1320   1.083       .  S
C1316      C1317   1.411       .  A
C1317      C1318   1.410       .  A
C1317      F1321   1.357       .  S
C1318      H1322   1.083       .  S
C1323      C1324   1.406       .  A
C1323      C1328   1.402       .  A
C1323      H1333   1.082       .  S
C1324      C1329   1.488       .  S
C1324      C1325   1.406       .  A
C1325      C1326   1.396       .  A
C1325      F1330   1.358       .  S
C1326      C1327   1.407       .  A
C1326      H1331   1.083       .  S
C1327      C1328   1.411       .  A
C1328      F1332   1.357       .  S
C1329      C1334   1.407       .  A
C1329      C1338   1.405       .  A
C1334      C1335   1.401       .  A
C1334      F1339   1.357       .  S
C1335      C1336   1.407       .  A
C1335      H1340   1.083       .  S
C1336      C1337   1.409       .  A
C1337      C1338   1.397       .  A
C1337      F1341   1.357       .  S
C1338      H1342   1.083       .  S
C1343      C1344   1.414       .  A
C1343      C1348   1.417       .  A
C1343      H1353   1.083       .  S
C1344      C1349   1.495       .  S
C1344      C1345   1.400       .  A
C1345      C1346   1.391       .  A
C1345      F1350   1.358       .  S
C1346      C1347   1.413       .  A
C1346      H1351   1.083       .  S
C1347      C1348   1.410       .  A
C1348      F1352   1.357       .  S
C1349      C1354   1.403       .  A
C1349      C1358   1.410       .  A
C1354      C1355   1.402       .  A
C1354      F1359   1.357       .  S
C1355      C1356   1.414       .  A
C1355      H1360   1.083       .  S
C1356      C1357   1.410       .  A
C1357      C1358   1.407       .  A
C1357      F1361   1.357       .  S
C1358      H1362   1.083       .  S
C1363      C1364   1.401       .  A
C1363      C1368   1.401       .  A
C1363      H1373   1.083       .  S
C1364      C1369   1.486       .  S
C1364      C1365   1.409       .  A
C1365      C1366   1.403       .  A
C1365      F1370   1.357       .  S
C1366      C1367   1.403       .  A
C1366      H1371   1.083       .  S
C1367      C1368   1.412       .  A
C1368      F1372   1.358       .  S
C1369      C1374   1.408       .  A
C1369      C1378   1.401       .  A
C1374      C1375   1.408       .  A
C1374      F1379   1.357       .  S
C1375      C1376   1.406       .  A
C1375      H1380   1.083       .  S
C1376      C1377   1.411       .  A
C1377      C1378   1.396       .  A
C1377      F1381   1.358       .  S
C1378      H1382   1.084       .  S
C1383      C1384   1.400       .  A
C1383      C1388   1.402       .  A
C1383      H1393   1.083       .  S
C1384      C1389   1.484       .  S
C1384      C1385   1.407       .  A
C1385      C1386   1.403       .  A
C1385      F1390   1.357       .  S
C1386      C1387   1.405       .  A
C1386      H1391   1.083       .  S
C1387      C1388   1.414       .  A
C1388      F1392   1.358       .  S
C1389      C1394   1.404       .  A
C1389      C1398   1.405       .  A
C1394      C1395   1.398       .  A
C1394      F1399   1.358       .  S
C1395      C1396   1.406       .  A
C1395      H1400   1.084       .  S
C1396      C1397   1.407       .  A
C1397      C1398   1.406       .  A
C1397      F1401   1.357       .  S
C1398      H1402   1.083       .  S
C1403      C1404   1.404       .  A
C1403      C1408   1.396       .  A
C1403      H1413   1.084       .  S
C1404      C1409   1.481       .  S
C1404      C1405   1.405       .  A
C1405      C1406   1.403       .  A
C1405      F1410   1.357       .  S
C1406      C1407   1.405       .  A
C1406      H1411   1.084       .  S
C1407      C1408   1.403       .  A
C1408      F1412   1.356       .  S
C1409      C1414   1.401       .  A
C1409      C1418   1.406       .  A
C1414      C1415   1.394       .  A
C1414      F1419   1.358       .  S
C1415      C1416   1.409       .  A
C1415      H1420   1.083       .  S
C1416      C1417   1.411       .  A
C1417      C1418   1.405       .  A
C1417      F1421   1.357       .  S
C1418      H1422   1.083       .  S
C1423      C1424   1.407       .  A
C1423      C1428   1.407       .  A
C1423      H1433   1.083       .  S
C1424      C1429   1.497       .  S
C1424      C1425   1.409       .  A
C1425      C1426   1.400       .  A
C1425      F1430   1.357       .  S
C1426      C1427   1.406       .  A
C1426      H1431   1.082       .  S
C1427      C1428   1.412       .  A
C1428      F1432   1.357       .  S
C1429      C1434   1.407       .  A
C1429      C1438   1.409       .  A
C1434      C1435   1.398       .  A
C1434      F1439   1.358       .  S
C1435      C1436   1.408       .  A
C1435      H1440   1.083       .  S
C1436      C1437   1.411       .  A
C1437      C1438   1.409       .  A
C1437      F1441   1.357       .  S
C1438      H1442   1.083       .  S
C1443      C1444   1.412       .  A
C1443      C1448   1.408       .  A
C1443      H1453   1.083       .  S
C1444      C1449   1.506       .  S
C1444      C1445   1.412       .  A
C1445      C1446   1.400       .  A
C1445      F1450   1.357       .  S
C1446      C1447   1.407       .  A
C1446      H1451   1.084       .  S
C1447      C1448   1.409       .  A
C1448      F1452   1.357       .  S
C1449      C1454   1.412       .  A
C1449      C1458   1.411       .  A
C1454      C1455   1.403       .  A
C1454      F1459   1.357       .  S
C1455      C1456   1.408       .  A
C1455      H1460   1.083       .  S
C1456      C1457   1.408       .  A
C1457      C1458   1.406       .  A
C1457      F1461   1.357       .  S
C1458      H1462   1.083       .  S
C1463      C1464   1.406       .  A
C1463      C1468   1.401       .  A
C1463      H1473   1.083       .  S
C1464      C1469   1.492       .  S
C1464      C1465   1.407       .  A
C1465      C1466   1.402       .  A
C1465      F1470   1.357       .  S
C1466      C1467   1.408       .  A
C1466      H1471   1.083       .  S
C1467      C1468   1.410       .  A
C1468      F1472   1.358       .  S
C1469      C1474   1.406       .  A
C1469      C1478   1.408       .  A
C1474      C1475   1.401       .  A
C1474      F1479   1.358       .  S
C1475      C1476   1.408       .  A
C1475      H1480   1.083       .  S
C1476      C1477   1.408       .  A
C1477      C1478   1.404       .  A
C1477      F1481   1.357       .  S
C1478      H1482   1.083       .  S
C1483      C1484   1.402       .  A
C1483      C1488   1.399       .  A
C1483      H1493   1.083       .  S
C1484      C1489   1.494       .  S
C1484      C1485   1.411       .  A
C1485      C1486   1.405       .  A
C1485      F1490   1.357       .  S
C1486      C1487   1.406       .  A
C1486      H1491   1.083       .  S
C1487      C1488   1.416       .  A
C1488      F1492   1.358       .  S
C1489      C1494   1.407       .  A
C1489      C1498   1.410       .  A
C1494      C1495   1.398       .  A
C1494      F1499   1.358       .  S
C1495      C1496   1.407       .  A
C1495      H1500   1.083       .  S
C1496      C1497   1.407       .  A
C1497      C1498   1.407       .  A
C1497      F1501   1.357       .  S
C1498      H1502   1.083       .  S
C1503      C1504   1.406       .  A
C1503      C1508   1.403       .  A
C1503      H1513   1.083       .  S
C1504      C1509   1.499       .  S
C1504      C1505   1.409       .  A
C1505      C1506   1.407       .  A
C1505      F1510   1.357       .  S
C1506      C1507   1.410       .  A
C1506      H1511   1.083       .  S
C1507      C1508   1.412       .  A
C1508      F1512   1.357       .  S
C1509      C1514   1.412       .  A
C1509      C1518   1.405       .  A
C1514      C1515   1.407       .  A
C1514      F1519   1.355       .  S
C1515      C1516   1.405       .  A
C1515      H1520   1.083       .  S
C1516      C1517   1.410       .  A
C1517      C1518   1.401       .  A
C1517      F1521   1.358       .  S
C1518      H1522   1.083       .  S
C1523      C1524   1.403       .  A
C1523      C1528   1.396       .  A
C1523      H1533   1.080       .  S
C1524      C1529   1.493       .  S
C1524      C1525   1.410       .  A
C1525      C1526   1.402       .  A
C1525      F1530   1.357       .  S
C1526      C1527   1.408       .  A
C1526      H1531   1.083       .  S
C1527      C1528   1.411       .  A
C1528      F1532   1.358       .  S
C1529      C1534   1.410       .  A
C1529      C1538   1.407       .  A
C1534      C1535   1.402       .  A
C1534      F1539   1.357       .  S
C1535      C1536   1.402       .  A
C1535      H1540   1.083       .  S
C1536      C1537   1.408       .  A
C1537      C1538   1.400       .  A
C1537      F1541   1.358       .  S
C1538      H1542   1.083       .  S
C1543      C1544   1.406       .  A
C1543      C1548   1.402       .  A
C1543      H1553   1.083       .  S
C1544      C1549   1.492       .  S
C1544      C1545   1.408       .  A
C1545      C1546   1.399       .  A
C1545      F1550   1.357       .  S
C1546      C1547   1.407       .  A
C1546      H1551   1.083       .  S
C1547      C1548   1.410       .  A
C1548      F1552   1.358       .  S
C1549      C1554   1.409       .  A
C1549      C1558   1.405       .  A
C1554      C1555   1.402       .  A
C1554      F1559   1.357       .  S
C1555      C1556   1.406       .  A
C1555      H1560   1.083       .  S
C1556      C1557   1.410       .  A
C1557      C1558   1.401       .  A
C1557      F1561   1.357       .  S
C1558      H1562   1.083       .  S
C1563      C1564   1.406       .  A
C1563      C1568   1.399       .  A
C1563      H1573   1.083       .  S
C1564      C1569   1.489       .  S
C1564      C1565   1.406       .  A
C1565      C1566   1.401       .  A
C1565      F1570   1.357       .  S
C1566      C1567   1.407       .  A
C1566      H1571   1.083       .  S
C1567      C1568   1.409       .  A
C1568      F1572   1.358       .  S
C1569      C1574   1.405       .  A
C1569      C1578   1.407       .  A
C1574      C1575   1.399       .  A
C1574      F1579   1.358       .  S
C1575      C1576   1.408       .  A
C1575      H1580   1.083       .  S
C1576      C1577   1.408       .  A
C1577      C1578   1.404       .  A
C1577      F1581   1.357       .  S
C1578      H1582   1.083       .  S
C1583      C1584   1.405       .  A
C1583      C1588   1.400       .  A
C1583      H1593   1.083       .  S
C1584      C1589   1.495       .  S
C1584      C1585   1.411       .  A
C1585      C1586   1.401       .  A
C1585      F1590   1.357       .  S
C1586      C1587   1.406       .  A
C1586      H1591   1.083       .  S
C1587      C1588   1.413       .  A
C1588      F1592   1.358       .  S
C1589      C1594   1.410       .  A
C1589      C1598   1.408       .  A
C1594      C1595   1.401       .  A
C1594      F1599   1.357       .  S
C1595      C1596   1.405       .  A
C1595      H1600   1.083       .  S
C1596      C1597   1.406       .  A
C1597      C1598   1.399       .  A
C1597      F1601   1.357       .  S
C1598      H1602   1.083       .  S
C1603      C1604   1.408       .  A
C1603      C1608   1.397       .  A
C1603      H1613   1.083       .  S
C1604      C1609   1.496       .  S
C1604      C1605   1.409       .  A
C1605      C1606   1.404       .  A
C1605      F1610   1.357       .  S
C1606      C1607   1.410       .  A
C1606      H1611   1.083       .  S
C1607      C1608   1.406       .  A
C1608      F1612   1.357       .  S
C1609      C1614   1.413       .  A
C1609      C1618   1.406       .  A
C1614      C1615   1.405       .  A
C1614      F1619   1.357       .  S
C1615      C1616   1.408       .  A
C1615      H1620   1.083       .  S
C1616      C1617   1.408       .  A
C1617      C1618   1.397       .  A
C1617      F1621   1.357       .  S
C1618      H1622   1.083       .  S
C1623      C1624   1.405       .  A
C1623      C1628   1.398       .  A
C1623      H1633   1.083       .  S
C1624      C1629   1.483       .  S
C1624      C1625   1.406       .  A
C1625      C1626   1.399       .  A
C1625      F1630   1.357       .  S
C1626      C1627   1.405       .  A
C1626      H1631   1.083       .  S
C1627      C1628   1.408       .  A
C1628      F1632   1.358       .  S
C1629      C1634   1.403       .  A
C1629      C1638   1.408       .  A
C1634      C1635   1.392       .  A
C1634      F1639   1.359       .  S
C1635      C1636   1.414       .  A
C1635      H1640   1.083       .  S
C1636      C1637   1.404       .  A
C1637      C1638   1.403       .  A
C1637      F1641   1.356       .  S
C1638      H1642   1.083       .  S
C1643      C1644   1.406       .  A
C1643      C1648   1.404       .  A
C1643      H1653   1.083       .  S
C1644      C1649   1.488       .  S
C1644      C1645   1.406       .  A
C1645      C1646   1.399       .  A
C1645      F1650   1.359       .  S
C1646      C1647   1.411       .  A
C1646      H1651   1.083       .  S
C1647      C1648   1.408       .  A
C1648      F1652   1.356       .  S
C1649      C1654   1.409       .  A
C1649      C1658   1.404       .  A
C1654      C1655   1.402       .  A
C1654      F1659   1.358       .  S
C1655      C1656   1.405       .  A
C1655      H1660   1.083       .  S
C1656      C1657   1.408       .  A
C1657      C1658   1.399       .  A
C1657      F1661   1.358       .  S
C1658      H1662   1.083       .  S
C1663      C1664   1.409       .  A
C1663      C1668   1.409       .  A
C1663      H1673   1.083       .  S
C1664      C1669   1.504       .  S
C1664      C1665   1.410       .  A
C1665      C1666   1.405       .  A
C1665      F1670   1.358       .  S
C1666      C1667   1.409       .  A
C1666      H1671   1.083       .  S
C1667      C1668   1.411       .  A
C1668      F1672   1.356       .  S
C1669      C1674   1.409       .  A
C1669      C1678   1.410       .  A
C1674      C1675   1.401       .  A
C1674      F1679   1.357       .  S
C1675      C1676   1.408       .  A
C1675      H1680   1.083       .  S
C1676      C1677   1.412       .  A
C1677      C1678   1.408       .  A
C1677      F1681   1.357       .  S
C1678      H1682   1.083       .  S
C1683      C1684   1.409       .  A
C1683      C1688   1.404       .  A
C1683      H1693   1.083       .  S
C1684      C1689   1.499       .  S
C1684      C1685   1.409       .  A
C1685      C1686   1.401       .  A
C1685      F1690   1.359       .  S
C1686      C1687   1.414       .  A
C1686      H1691   1.083       .  S
C1687      C1688   1.405       .  A
C1688      F1692   1.356       .  S
C1689      C1694   1.412       .  A
C1689      C1698   1.408       .  A
C1694      C1695   1.406       .  A
C1694      F1699   1.357       .  S
C1695      C1696   1.403       .  A
C1695      H1700   1.083       .  S
C1696      C1697   1.406       .  A
C1697      C1698   1.401       .  A
C1697      F1701   1.358       .  S
C1698      H1702   1.083       .  S
C1703      C1704   1.406       .  A
C1703      C1708   1.399       .  A
C1703      H1713   1.083       .  S
C1704      C1709   1.494       .  S
C1704      C1705   1.411       .  A
C1705      C1706   1.407       .  A
C1705      F1710   1.357       .  S
C1706      C1707   1.405       .  A
C1706      H1711   1.083       .  S
C1707      C1708   1.406       .  A
C1708      F1712   1.358       .  S
C1709      C1714   1.407       .  A
C1709      C1718   1.407       .  A
C1714      C1715   1.401       .  A
C1714      F1719   1.356       .  S
C1715      C1716   1.409       .  A
C1715      H1720   1.083       .  S
C1716      C1717   1.411       .  A
C1717      C1718   1.403       .  A
C1717      F1721   1.358       .  S
C1718      H1722   1.083       .  S
C1723      C1724   1.408       .  A
C1723      C1728   1.405       .  A
C1723      H1733   1.083       .  S
C1724      C1729   1.504       .  S
C1724      C1725   1.413       .  A
C1725      C1726   1.405       .  A
C1725      F1730   1.356       .  S
C1726      C1727   1.405       .  A
C1726      H1731   1.083       .  S
C1727      C1728   1.411       .  A
C1728      F1732   1.358       .  S
C1729      C1734   1.411       .  A
C1729      C1738   1.409       .  A
C1734      C1735   1.404       .  A
C1734      F1739   1.358       .  S
C1735      C1736   1.411       .  A
C1735      H1740   1.083       .  S
C1736      C1737   1.409       .  A
C1737      C1738   1.405       .  A
C1737      F1741   1.357       .  S
C1738      H1742   1.083       .  S
C1743      C1744   1.413       .  A
C1743      C1748   1.409       .  A
C1743      H1753   1.082       .  S
C1744      C1749   1.509       .  S
C1744      C1745   1.410       .  A
C1745      C1746   1.401       .  A
C1745      F1750   1.357       .  S
C1746      C1747   1.409       .  A
C1746      H1751   1.083       .  S
C1747      C1748   1.409       .  A
C1748      F1752   1.357       .  S
C1749      C1754   1.411       .  A
C1749      C1758   1.414       .  A
C1754      C1755   1.399       .  A
C1754      F1759   1.357       .  S
C1755      C1756   1.407       .  A
C1755      H1760   1.083       .  S
C1756      C1757   1.408       .  A
C1757      C1758   1.410       .  A
C1757      F1761   1.357       .  S
C1758      H1762   1.082       .  S
C1763      C1764   1.412       .  A
C1763      C1768   1.409       .  A
C1763      H1773   1.083       .  S
C1764      C1769   1.506       .  S
C1764      C1765   1.410       .  A
C1765      C1766   1.401       .  A
C1765      F1770   1.357       .  S
C1766      C1767   1.406       .  A
C1766      H1771   1.083       .  S
C1767      C1768   1.408       .  A
C1768      F1772   1.357       .  S
C1769      C1774   1.412       .  A
C1769      C1778   1.408       .  A
C1774      C1775   1.405       .  A
C1774      F1779   1.357       .  S
C1775      C1776   1.408       .  A
C1775      H1780   1.083       .  S
C1776      C1777   1.415       .  A
C1777      C1778   1.408       .  A
C1777      F1781   1.357       .  S
C1778      H1782   1.083       .  S
