geometry optimzed in LAMMPS
_audit_creation_date              2020-11-30 
_audit_creation_method            'lammps2cif' 
_symmetry_space_group_name_H-M    'P1' 
_symmetry_Int_Tables_number       1 
_symmetry_cell_setting            triclinic 
loop_ 
_symmetry_equiv_pos_as_xyz 
  x,y,z 
_cell_length_a                    51.52498660697067 
_cell_length_b                    51.05477523623437 
_cell_length_c                    50.71511054706828 
_cell_angle_alpha                 90.08995013043126 
_cell_angle_beta                  90.12371916268698 
_cell_angle_gamma                 90.10714421991356 
loop_ 
_atom_site_label 
_atom_site_type_symbol 
_atom_site_fract_x 
_atom_site_fract_y 
_atom_site_fract_z 
_atom_site_charge 
C1          C  0.65250222  0.69117609  0.92018458     0.03000
C2          C  0.66634231  0.70706411  0.90265223    -0.13150
C3          C  0.69151689  0.69994152  0.89456598     0.00500
C4          C  0.70342804  0.67778210  0.90622746    -0.11670
C5          C  0.68954805  0.66192554  0.92423978     0.03000
C6          C  0.66302064  0.66708374  0.92773048    -0.11090
H7          H  0.65812039  0.72560864  0.89653727     0.08590
H8          H  0.72378191  0.67405121  0.90253604     0.06120
H9          H  0.65146158  0.65445528  0.94020574     0.05970
C10         C  0.85958557  0.71067567  0.72306995     0.03000
C11         C  0.86768028  0.71886636  0.69767572    -0.13150
C12         C  0.88905926  0.70668822  0.68485747     0.00500
C13         C  0.90179428  0.68661876  0.69866522    -0.11670
C14         C  0.89275252  0.67703324  0.72267011     0.03000
C15         C  0.87157674  0.68897108  0.73491608    -0.11090
H16         H  0.85773605  0.73523476  0.68878829     0.08590
H17         H  0.92003455  0.67891424  0.69182967     0.06120
H18         H  0.86560346  0.68255806  0.75434440     0.05970
C19         C  0.69384002  0.88297232  0.73998106     0.03000
C20         C  0.66758856  0.88786548  0.74662435    -0.13150
C21         C  0.65461503  0.91015175  0.73650148     0.00500
C22         C  0.66893347  0.92740426  0.72066008    -0.11670
C23         C  0.69386765  0.92157052  0.71197108     0.03000
C24         C  0.70655055  0.89952029  0.72199178    -0.11090
H25         H  0.65781730  0.87477212  0.76010582     0.08590
H26         H  0.66098514  0.94615641  0.71505049     0.06120
H27         H  0.72627605  0.89527883  0.71598151     0.05970
C28         C  0.75468224  0.80196688  0.79140997     0.02160
C29         C  0.74275099  0.78964791  0.81304749     0.02160
C30         C  0.75311817  0.76624516  0.82408892     0.02160
C31         C  0.77872106  0.75802485  0.81604838     0.02160
C32         C  0.78874515  0.76876008  0.79174776     0.02160
C33         C  0.77841711  0.79243404  0.78183568     0.02160
C34         C  0.38993559  0.38287199  0.94847011     0.03000
C35         C  0.37920358  0.36873817  0.92737289    -0.13150
C36         C  0.35997860  0.38021055  0.91136335     0.00500
C37         C  0.35150919  0.40584907  0.91700899    -0.11670
C38         C  0.36240421  0.42006974  0.93812779     0.03000
C39         C  0.38155654  0.40826788  0.95354669    -0.11090
H40         H  0.38534445  0.34874951  0.92382428     0.08590
H41         H  0.33561414  0.41419861  0.90586025     0.06120
H42         H  0.38900222  0.41822299  0.97087587     0.05970
C43         C  0.88337053  0.35269471  0.38895024     0.03000
C44         C  0.89586850  0.37667320  0.38363388    -0.13150
C45         C  0.91195554  0.38846078  0.40280810     0.00500
C46         C  0.91449607  0.37638229  0.42753694    -0.11670
C47         C  0.90261978  0.35226427  0.43278364     0.03000
C48         C  0.88714372  0.34039707  0.41340776    -0.11090
H49         H  0.89402325  0.38537575  0.36425443     0.08590
H50         H  0.92730626  0.38487921  0.44224784     0.06120
H51         H  0.87868390  0.32128360  0.41705313     0.05970
C52         C  0.38878153  0.92914719  0.38631400     0.03000
C53         C  0.37582817  0.90835020  0.37387450    -0.13150
C54         C  0.36022694  0.89122427  0.38865386     0.00500
C55         C  0.35780390  0.89495195  0.41603683    -0.11670
C56         C  0.37068677  0.91586179  0.42856756     0.03000
C57         C  0.38635320  0.93249063  0.41349329    -0.11090
H58         H  0.37756944  0.90570884  0.35273988     0.08590
H59         H  0.34537394  0.88205960  0.42733064     0.06120
H60         H  0.39627079  0.94878781  0.42285312     0.05970
C61         C  0.86253430  0.91360364  0.43738559     0.03000
C62         C  0.88672846  0.90361681  0.44455254    -0.13150
C63         C  0.89406490  0.87841901  0.43727160     0.00500
C64         C  0.87859559  0.86415527  0.41957918    -0.11670
C65         C  0.85528625  0.87489794  0.40991056     0.03000
C66         C  0.84679524  0.89940397  0.41962160    -0.11090
H67         H  0.89828400  0.91406084  0.45910875     0.08590
H68         H  0.88413702  0.84439829  0.41416072     0.06120
H69         H  0.82781014  0.90678529  0.41424959     0.05970
C70         C  0.84089885  0.86428913  0.72082751     0.03000
C71         C  0.86475271  0.85766487  0.70924134    -0.13150
C72         C  0.87756932  0.87549709  0.69245961     0.00500
C73         C  0.86691575  0.90053811  0.68898654    -0.11670
C74         C  0.84332907  0.90738493  0.70081920     0.03000
C75         C  0.83039721  0.88923049  0.71676748    -0.11090
H76         H  0.87269485  0.83830482  0.71248218     0.08590
H77         H  0.87585123  0.91408869  0.67528091     0.06120
H78         H  0.81163249  0.89410290  0.72505917     0.05970
C79         C  0.87927874  0.42990795  0.87233367     0.03000
C80         C  0.87292484  0.43945584  0.89739080    -0.13150
C81         C  0.85109980  0.43016730  0.91089501     0.00500
C82         C  0.83571003  0.41054871  0.89926870    -0.11670
C83         C  0.84147221  0.40126904  0.87387324     0.03000
C84         C  0.86335660  0.41089550  0.86050351    -0.11090
H85         H  0.88428499  0.45529384  0.90583049     0.08590
H86         H  0.81874868  0.40320953  0.90949636     0.06120
H87         H  0.86776627  0.40382036  0.84085639     0.05970
C88         C  0.88242693  0.65277716  0.86563023     0.03000
C89         C  0.86716604  0.67250399  0.85470926    -0.13150
C90         C  0.84907538  0.68592064  0.87032975     0.00500
C91         C  0.84520116  0.67766163  0.89670699    -0.11670
C92         C  0.85939169  0.65654088  0.90702694     0.03000
C93         C  0.87912268  0.64552094  0.89184806    -0.11090
H94         H  0.86846502  0.67619198  0.83376228     0.08590
H95         H  0.83022700  0.68651627  0.90867916     0.06120
H96         H  0.89059361  0.62955869  0.89979129     0.05970
C97         C  0.18717005  0.86321571  0.45826009     0.03000
C98         C  0.19939298  0.88552732  0.46844552    -0.13150
C99         C  0.22400668  0.89293713  0.45969419     0.00500
C100        C  0.23642458  0.87827193  0.44010942    -0.11670
C101        C  0.22440493  0.85590815  0.42944659     0.03000
C102        C  0.19964102  0.84837753  0.43859742    -0.11090
H103        H  0.19028592  0.89640736  0.48430713     0.08590
H104        H  0.25554370  0.88410479  0.43340841     0.06120
H105        H  0.19054160  0.83072713  0.43107272     0.05970
C106        C  0.18715130  0.86276301  0.68372796     0.03000
C107        C  0.20107084  0.88245026  0.67044002    -0.13150
C108        C  0.22712017  0.88747757  0.67619769     0.00500
C109        C  0.24031768  0.87168881  0.69410204    -0.11670
C110        C  0.22735474  0.85123442  0.70669750     0.03000
C111        C  0.20048559  0.84802157  0.70304303    -0.11090
H112        H  0.19204196  0.89375416  0.65489503     0.08590
H113        H  0.26066088  0.87521837  0.69828190     0.06120
H114        H  0.19059308  0.83351723  0.71479949     0.05970
O115        O  0.98269444  0.75771603  0.51493077    -0.75420
O116        O  0.95282131  0.78041855  0.53907308    -0.54330
C117        C  0.95935109  0.76489298  0.52038559     0.78310
O118        O  0.06989231  0.74426838  0.61938187    -0.60020
O119        O  0.10055144  0.76807916  0.59746055    -0.53050
C120        C  0.09371295  0.74987746  0.61334251     0.70330
O121        O  0.98009799  0.74683479  0.61537280    -0.74580
O122        O  0.95176001  0.77451116  0.59494650    -0.55140
C123        C  0.95687927  0.75475959  0.60976343     0.76330
O124        O  0.07067830  0.76235664  0.51100922    -0.59720
O125        O  0.10161512  0.77703670  0.53968252    -0.52840
C126        C  0.09439166  0.76689550  0.51765754     0.72920
Zr127      Zr  0.02731735  0.76550917  0.53000340     2.54710
O128        O  0.02964455  0.71802680  0.53350722    -0.80290
O129        O  0.02612724  0.76029057  0.48222811    -0.93700
Zr130      Zr  0.02562493  0.75976508  0.60747588     2.64680
O131        O  0.02349259  0.71222710  0.60405188    -0.98660
O132        O  0.02370730  0.75779305  0.65537721    -0.80720
O133        O  0.00095322  0.76381348  0.56807678    -0.84080
O134        O  0.05189094  0.76091584  0.56912376    -2.18790
O135        O  0.07527465  0.84400502  0.51577476    -0.67470
O136        O  0.10341761  0.82804060  0.54610519    -0.52030
C137        C  0.09850422  0.83857671  0.52374740     0.71300
O138        O  0.98489588  0.84983143  0.62912771    -0.60370
O139        O  0.95483265  0.83189315  0.60146538    -0.52350
C140        C  0.96134291  0.84558684  0.62184815     0.73110
O141        O  0.07081279  0.84525631  0.63208640    -0.71770
O142        O  0.10056401  0.82303683  0.60740742    -0.50450
C143        C  0.09401428  0.83781427  0.62685500     0.74490
O144        O  0.98928345  0.85206531  0.51472210    -0.67100
O145        O  0.95698419  0.83230324  0.53784886    -0.54300
C146        C  0.96526149  0.84598983  0.51829069     0.72870
Zr147      Zr  0.03135047  0.84397801  0.53545472     2.77540
O148        O  0.03548297  0.88934447  0.54966959    -0.97850
O149        O  0.03318175  0.86443040  0.49215751    -0.78670
Zr150      Zr  0.02801209  0.83841916  0.61315762     2.70070
O151        O  0.03113622  0.88597323  0.61148246    -0.79920
O152        O  0.02470636  0.83901844  0.66107443    -0.99000
Zr153      Zr  0.97857603  0.80472756  0.57013740     2.21500
Zr154      Zr  0.07693104  0.80012055  0.57297176     2.11130
O155        O  0.05523334  0.84118653  0.57536780    -2.47690
O156        O  0.00395063  0.84369125  0.57338697    -0.79710
O157        O  0.05345349  0.80362061  0.53291064    -0.71910
O158        O  0.00223348  0.79992955  0.61020297    -2.32860
O159        O  0.00503064  0.80573627  0.53148680    -2.29070
O160        O  0.05132326  0.79820884  0.61180364    -0.73660
H161        H  0.06282050  0.74562046  0.56780485     0.78330
H162        H  0.99059131  0.79902627  0.62507525     0.79420
H163        H  0.06745251  0.85548821  0.57692759     0.81650
H164        H  0.99502812  0.80601469  0.51540892     0.79250
H165        H  0.02219208  0.77629774  0.66101977     0.42290
H166        H  0.03730797  0.82574507  0.66725234     0.41260
H167        H  0.01456475  0.89167269  0.60343082     0.40940
H168        H  0.05146486  0.89567912  0.54092376     0.38870
H169        H  0.03257206  0.84959434  0.47956270     0.42000
H170        H  0.01377986  0.77374180  0.47590238     0.36790
H171        H  0.01230578  0.71276001  0.54003157     0.42900
H172        H  0.03667313  0.70760788  0.59066453     0.39320
H173        H  0.02120227  0.89855248  0.54047428     0.44240
H174        H  0.01724064  0.74335456  0.47908564     0.42960
H175        H  0.03080196  0.70579026  0.62090597     0.43100
H176        H  0.03226383  0.85604054  0.66651767     0.43450
C177        C  0.36473543  0.69929842  0.89588540     0.03000
C178        C  0.35298016  0.67605319  0.90452080    -0.13150
C179        C  0.36474451  0.66101057  0.92418323     0.00500
C180        C  0.38852389  0.66885195  0.93465363    -0.11670
C181        C  0.39920132  0.69331119  0.92844204     0.03000
C182        C  0.38761360  0.70834436  0.90831825    -0.11090
H183        H  0.33422770  0.67023081  0.89670971     0.08590
H184        H  0.39709284  0.65727907  0.95033648     0.06120
H185        H  0.39540672  0.72740933  0.90330511     0.05970
C186        C  0.37799963  0.86368315  0.72734823     0.03000
C187        C  0.39948220  0.87453393  0.74071469    -0.13150
C188        C  0.41509170  0.89335829  0.72822217     0.00500
C189        C  0.40974142  0.90012713  0.70202229    -0.11670
C190        C  0.38647886  0.89247838  0.69022010     0.03000
C191        C  0.37103728  0.87342730  0.70239758    -0.11090
H192        H  0.40276696  0.86971782  0.76123898     0.08590
H193        H  0.42101153  0.91558308  0.69280374     0.06120
H194        H  0.35265677  0.86782444  0.69359192     0.05970
C195        C  0.27777467  0.75661080  0.77843584     0.02160
C196        C  0.28818389  0.78082959  0.77022680     0.02160
C197        C  0.31075772  0.79105311  0.78229843     0.02160
C198        C  0.32084293  0.77890451  0.80513690     0.02160
C199        C  0.30922037  0.75568290  0.81473047     0.02160
C200        C  0.28701398  0.74509388  0.80197555     0.02160
C201        C  0.20418121  0.69932560  0.71268131     0.03000
C202        C  0.19533924  0.70819889  0.68788863    -0.13150
C203        C  0.17190626  0.69845192  0.67674330     0.00500
C204        C  0.16017437  0.67711153  0.68957556    -0.11670
C205        C  0.17034461  0.66649371  0.71268874     0.03000
C206        C  0.19193294  0.67796702  0.72469699    -0.11090
H207        H  0.20651107  0.72330209  0.67851159     0.08590
H208        H  0.14174698  0.66936961  0.68286671     0.06120
H209        H  0.19830995  0.67121035  0.74389491     0.05970
O210        O  0.98441967  0.59657449  0.82394571    -0.75420
O211        O  0.95450247  0.56854486  0.80652175    -0.54330
C212        C  0.96096932  0.58961386  0.81871219     0.78310
O213        O  0.07188877  0.59582053  0.73649248    -0.60020
O214        O  0.10232001  0.56997524  0.75610616    -0.53050
C215        C  0.09542287  0.59030678  0.74309853     0.70330
O216        O  0.98586640  0.59851043  0.74279153    -0.74580
O217        O  0.95443962  0.57021144  0.75588760    -0.55140
C218        C  0.96191818  0.59258149  0.74725783     0.76330
O219        O  0.07152049  0.59423719  0.83118968    -0.59720
O220        O  0.10126060  0.56848191  0.81036229    -0.52840
C221        C  0.09497180  0.58729892  0.82584413     0.72920
Zr222      Zr  0.02780438  0.57823201  0.82037798     2.54710
O223        O  0.02894252  0.62525502  0.82825960    -0.80290
O224        O  0.02383829  0.57165937  0.86772838    -0.93700
Zr225      Zr  0.02829894  0.57683625  0.74083297     2.64680
O226        O  0.02519025  0.61939207  0.71929949    -0.98660
O227        O  0.02573982  0.56493686  0.69439859    -0.80720
O228        O  0.00408254  0.57757083  0.78033482    -0.84080
O229        O  0.05221671  0.57901971  0.78101801    -2.18790
O230        O  0.07219518  0.48497584  0.83066884    -0.67470
O231        O  0.10163585  0.50969319  0.80839262    -0.52030
C232        C  0.09558126  0.49065221  0.82371453     0.71300
O233        O  0.98594479  0.47925137  0.74100378    -0.60370
O234        O  0.95507591  0.50886785  0.75291307    -0.52350
C235        C  0.96213373  0.48644928  0.74416379     0.73110
O236        O  0.07417599  0.48245394  0.73829922    -0.71770
O237        O  0.10338597  0.51149763  0.75551460    -0.50450
C238        C  0.09753581  0.48998964  0.74398261     0.74490
O239        O  0.98458459  0.48412824  0.82933055    -0.67100
O240        O  0.95463084  0.50833476  0.80722487    -0.54300
C241        C  0.96105525  0.48953698  0.82269374     0.72870
Zr242      Zr  0.02822769  0.50102749  0.82156453     2.77540
O243        O  0.02647209  0.45389588  0.82882105    -0.97850
O244        O  0.02783295  0.50836806  0.86899830    -0.78670
Zr245      Zr  0.02932849  0.49954497  0.74211505     2.70070
O246        O  0.03088941  0.45387318  0.72837527    -0.79920
O247        O  0.02758060  0.50691755  0.69475680    -0.99000
Zr248      Zr  0.97934201  0.53843312  0.78039226     2.21500
Zr249      Zr  0.07704606  0.53979649  0.78182029     2.11130
O250        O  0.05277993  0.50004336  0.78229255    -2.47690
O251        O  0.00448363  0.49954172  0.78148713    -0.79710
O252        O  0.05364300  0.53990994  0.82220944    -0.71910
O253        O  0.00303518  0.53784799  0.73994799    -2.32860
O254        O  0.00230920  0.53939967  0.82131319    -2.29070
O255        O  0.05451929  0.53860601  0.74071355    -0.73660
H256        H  0.06269841  0.59465925  0.78198940     0.78330
H257        H  0.99146450  0.53742740  0.72493430     0.79420
H258        H  0.06349695  0.48462669  0.78319065     0.81650
H259        H  0.99050565  0.53955940  0.83609096     0.79250
H260        H  0.00868952  0.57170918  0.68852073     0.42290
H261        H  0.04503051  0.50188091  0.68839597     0.41260
H262        H  0.03136702  0.44390128  0.74510424     0.40940
H263        H  0.04045342  0.44648128  0.81773447     0.38870
H264        H  0.04591938  0.51333175  0.87339598     0.42000
H265        H  0.00568446  0.57650070  0.87180988     0.36790
H266        H  0.02872948  0.63307203  0.81040106     0.42900
H267        H  0.02987133  0.63227426  0.73312793     0.39320
H268        H  0.03248713  0.45143662  0.84720003     0.44240
H269        H  0.03439985  0.58588058  0.87562342     0.42960
H270        H  0.03963867  0.62006345  0.70648014     0.43100
H271        H  0.01591315  0.49299886  0.68800553     0.43450
C272        C  0.18515475  0.43764736  0.86473365     0.03000
C273        C  0.19085027  0.44835876  0.88940948    -0.13150
C274        C  0.21350357  0.44169629  0.90288802     0.00500
C275        C  0.23066078  0.42341587  0.89167204    -0.11670
C276        C  0.22529668  0.41259085  0.86659610     0.03000
C277        C  0.20245648  0.41982503  0.85321285    -0.11090
H278        H  0.17778719  0.46267480  0.89796898     0.08590
H279        H  0.24830185  0.41813039  0.90202662     0.06120
H280        H  0.19804047  0.41136864  0.83410062     0.05970
C281        C  0.18377906  0.64480478  0.86470116     0.03000
C282        C  0.19913497  0.66108412  0.84867629    -0.13150
C283        C  0.22229689  0.67192380  0.85863834     0.00500
C284        C  0.22986653  0.66675539  0.88467403    -0.11670
C285        C  0.21466577  0.65057266  0.90076426     0.03000
C286        C  0.19157168  0.64003504  0.89074648    -0.11090
H287        H  0.19354516  0.66471507  0.82840206     0.08590
H288        H  0.24767079  0.67521977  0.89232028     0.06120
H289        H  0.18003776  0.62714206  0.90302819     0.05970
C290        C  0.41831367  0.84239431  0.91008263     0.03000
C291        C  0.40135611  0.82785933  0.89410593    -0.13150
C292        C  0.39075014  0.83910210  0.87127982     0.00500
C293        C  0.39741472  0.86495669  0.86438480    -0.11670
C294        C  0.41439610  0.87960285  0.88048377     0.03000
C295        C  0.42435746  0.86826247  0.90347824    -0.11090
H296        H  0.39685224  0.80772911  0.89912575     0.08590
H297        H  0.38984714  0.87342275  0.84636492     0.06120
H298        H  0.43821309  0.87904944  0.91544044     0.05970
C299        C  0.63671822  0.84588649  0.90833213     0.03000
C300        C  0.65498575  0.83376309  0.89221260    -0.13150
C301        C  0.66712375  0.84810683  0.87221439     0.00500
C302        C  0.66195760  0.87500971  0.86938924    -0.11670
C303        C  0.64273336  0.88718606  0.88498817     0.03000
C304        C  0.62944376  0.87170986  0.90342863    -0.11090
H305        H  0.65995901  0.81338565  0.89537183     0.08590
H306        H  0.67264064  0.88598415  0.85475434     0.06120
H307        H  0.61326492  0.87956102  0.91440355     0.05970
C308        C  0.18622118  0.72770536  0.39654835     0.03000
C309        C  0.18004846  0.73953032  0.42082980    -0.13150
C310        C  0.16024270  0.72908700  0.43657407     0.00500
C311        C  0.14667928  0.70692670  0.42806548    -0.11670
C312        C  0.15191002  0.69562799  0.40356209     0.03000
C313        C  0.17216459  0.70557540  0.38804410    -0.11090
H314        H  0.18997408  0.75725989  0.42698058     0.08590
H315        H  0.13061658  0.69957032  0.43972928     0.06120
H316        H  0.17638921  0.69668632  0.36912200     0.05970
C317        C  0.31168210  0.79981059  0.31168552     0.02160
C318        C  0.30102016  0.81118706  0.33463300     0.02160
C319        C  0.27858756  0.80023109  0.34629434     0.02160
C320        C  0.26773933  0.77693907  0.33582018     0.02160
C321        C  0.27842156  0.76554843  0.31284159     0.02160
C322        C  0.30148114  0.77596931  0.30202409     0.02160
C323        C  0.36286270  0.70919553  0.23429681     0.03000
C324        C  0.35132165  0.68584115  0.22561687    -0.13150
C325        C  0.36388660  0.66981152  0.20709540     0.00500
C326        C  0.38826482  0.67749532  0.19749404    -0.11670
C327        C  0.40074876  0.70014948  0.20692873     0.03000
C328        C  0.38781484  0.71594667  0.22552345    -0.11090
H329        H  0.33205125  0.68076727  0.23247817     0.08590
H330        H  0.39688141  0.66650986  0.18147257     0.06120
H331        H  0.39662197  0.73401037  0.23237411     0.05970
O332        O  0.32348720  0.49347040  0.02608892    -0.75420
O333        O  0.30327099  0.51819914  0.99475170    -0.54330
C334        C  0.31818157  0.49950829  0.00199103     0.78310
O335        O  0.22237072  0.49374488  0.10947950    -0.60020
O336        O  0.24157388  0.51878254  0.14124181    -0.53050
C337        C  0.22722898  0.49941188  0.13381527     0.70330
O338        O  0.22725622  0.49489503  0.02023344    -0.74580
O339        O  0.25025610  0.52089642  0.99234312    -0.55140
C340        C  0.23466209  0.50190867  0.99698568     0.76330
O341        O  0.31844621  0.49238037  0.11534003    -0.59720
O342        O  0.29530288  0.51663743  0.14502310    -0.52840
C343        C  0.31060247  0.49768728  0.13883343     0.72920
Zr344      Zr  0.31175841  0.50843537  0.07049624     2.54710
O345        O  0.31381131  0.46082469  0.07012920    -0.80290
O346        O  0.35879683  0.51153469  0.07403197    -0.93700
Zr347      Zr  0.23354237  0.51109690  0.06563770     2.64680
O348        O  0.22439096  0.46460331  0.06033547    -0.98660
O349        O  0.18723229  0.52035194  0.06419469    -0.80720
O350        O  0.27409411  0.50893905  0.04356181    -0.84080
O351        O  0.27125268  0.50916581  0.09262182    -2.18790
O352        O  0.32311746  0.59948633  0.11622463    -0.67470
O353        O  0.29836583  0.57646950  0.14556386    -0.52030
C354        C  0.31527969  0.59406404  0.13967241     0.71300
O355        O  0.23435311  0.60751740  0.02160137    -0.60370
O356        O  0.25478586  0.58006335  0.99303263    -0.52350
C357        C  0.24179145  0.60078586  0.99830071     0.73110
O358        O  0.22574880  0.60573687  0.10973811    -0.71770
O359        O  0.24390087  0.57966645  0.14131374    -0.50450
C360        C  0.23002013  0.59928911  0.13389479     0.74490
O361        O  0.32391835  0.60242411  0.02643650    -0.67100
O362        O  0.30643450  0.57537785  0.99520008    -0.54300
C363        C  0.31977332  0.59529351  0.00236498     0.72870
Zr364      Zr  0.31449141  0.58580819  0.07084973     2.77540
O365        O  0.32060970  0.63314234  0.07192761    -0.97850
O366        O  0.36129860  0.57945023  0.07125617    -0.78670
Zr367      Zr  0.23674004  0.58869047  0.06610447     2.70070
O368        O  0.23034725  0.63590636  0.06698639    -0.79920
O369        O  0.19009351  0.58305876  0.06091448    -0.99000
Zr370      Zr  0.27702746  0.54833559  0.01931504     2.21500
Zr371      Zr  0.27118119  0.54816343  0.11862371     2.11130
O372        O  0.27424881  0.58747697  0.09337001    -2.47690
O373        O  0.27706023  0.58781778  0.04385731    -0.79710
O374        O  0.31214597  0.54703327  0.09672307    -0.71910
O375        O  0.23572034  0.54999384  0.04007120    -2.32860
O376        O  0.31554479  0.54710143  0.04512085    -2.29070
O377        O  0.23294131  0.54987277  0.09190249    -0.73660
H378        H  0.27026913  0.49365247  0.10338876     0.78330
H379        H  0.22182421  0.55069734  0.02726967     0.79420
H380        H  0.27439318  0.60279939  0.10452023     0.81650
H381        H  0.33087756  0.54668111  0.03419777     0.79250
H382        H  0.18283279  0.52034896  0.04518017     0.42290
H383        H  0.18325849  0.58323352  0.07914535     0.41260
H384        H  0.24807563  0.64321376  0.06884956     0.40940
H385        H  0.30761991  0.63963034  0.08472235     0.38870
H386        H  0.36472443  0.56963029  0.08771658     0.42000
H387        H  0.36469539  0.51647047  0.05614680     0.36790
H388        H  0.29544278  0.45516670  0.07106920     0.42900
H389        H  0.23676203  0.45567001  0.07223482     0.39320
H390        H  0.33757650  0.63585922  0.08073067     0.44240
H391        H  0.36460872  0.49318876  0.07620356     0.42960
H392        H  0.20710365  0.46193317  0.06836324     0.43100
H393        H  0.18410122  0.59979353  0.05318502     0.43450
O394        O  0.97303001  0.49917338  0.38003288    -0.75420
O395        O  0.00245177  0.46830237  0.36746151    -0.54330
C396        C  0.98061382  0.47520132  0.37746490     0.78310
O397        O  0.98028633  0.58241663  0.28486311    -0.60020
O398        O  0.00164552  0.61592868  0.30473945    -0.53050
C399        C  0.98377766  0.60690512  0.28927514     0.70330
O400        O  0.97894757  0.49528514  0.29250032    -0.74580
O401        O  0.00340134  0.46485219  0.31406901    -0.55140
C402        C  0.98416795  0.47173767  0.29952141     0.76330
O403        O  0.97434932  0.58736618  0.38029524    -0.59720
O404        O  0.00036946  0.61740876  0.36034580    -0.52840
C405        C  0.98007047  0.61107338  0.37361108     0.72920
Zr406      Zr  0.99244110  0.54315174  0.37563941     2.54710
O407        O  0.94618000  0.54406224  0.38517649    -0.80290
O408        O  0.99867916  0.54314182  0.42321151    -0.93700
Zr409      Zr  0.99554619  0.53937596  0.29707592     2.64680
O410        O  0.94863157  0.53604940  0.29217775    -0.98660
O411        O  0.00108284  0.53585337  0.24953995    -0.80720
O412        O  0.99403162  0.51661457  0.33747101    -0.84080
O413        O  0.99318919  0.56615624  0.33495226    -2.18790
O414        O  0.08629398  0.58886257  0.38264575    -0.67470
O415        O  0.06125340  0.61862430  0.36092865    -0.52030
C416        C  0.08104270  0.61235552  0.37509676     0.71300
O417        O  0.08616354  0.49615805  0.29153497    -0.60370
O418        O  0.06230298  0.46576273  0.31399616    -0.52350
C419        C  0.08060590  0.47253027  0.29828421     0.73110
O420        O  0.08837196  0.58405738  0.29083429    -0.71770
O421        O  0.06428917  0.61653455  0.30943819    -0.50450
C422        C  0.08419864  0.60828534  0.29652584     0.74490
O423        O  0.09167501  0.50293118  0.38007067    -0.67100
O424        O  0.06534507  0.47001978  0.36612965    -0.54300
C425        C  0.08678153  0.47853085  0.37595961     0.72870
Zr426      Zr  0.06819976  0.54452271  0.37860151     2.77540
O427        O  0.11016532  0.54399181  0.40092476    -0.97850
O428        O  0.05479927  0.54353765  0.42457476    -0.78670
Zr429      Zr  0.07097445  0.54060351  0.29938080     2.70070
O430        O  0.11804498  0.53918216  0.29576651    -0.79920
O431        O  0.06670294  0.54018402  0.25157901    -0.99000
Zr432      Zr  0.03272631  0.49174471  0.33998698     2.21500
Zr433      Zr  0.03141722  0.59273870  0.33460685     2.11130
O434        O  0.06996946  0.56691232  0.33777192    -2.47690
O435        O  0.07063320  0.51813567  0.34015005    -0.79710
O436        O  0.02999903  0.57048771  0.37630892    -0.71910
O437        O  0.03355951  0.51378442  0.29858322    -2.32860
O438        O  0.03074294  0.51739745  0.37951564    -2.29070
O439        O  0.03297810  0.56640703  0.29563391    -0.73660
H440        H  0.97762900  0.57653362  0.33350070     0.78330
H441        H  0.03399450  0.50158682  0.28400623     0.79420
H442        H  0.08564655  0.57720131  0.33762115     0.81650
H443        H  0.03040822  0.50640606  0.39500518     0.79250
H444        H  0.00318902  0.51686642  0.24618836     0.42290
H445        H  0.06071774  0.55803549  0.24703131     0.41260
H446        H  0.12429255  0.54105054  0.31415582     0.40940
H447        H  0.12272486  0.55051115  0.38771838     0.38870
H448        H  0.05597998  0.56201587  0.43042054     0.42000
H449        H  0.99156320  0.52608586  0.42904981     0.36790
H450        H  0.93775122  0.54399646  0.36760828     0.42900
H451        H  0.94155360  0.55235569  0.29989136     0.39320
H452        H  0.10938297  0.55783075  0.41459632     0.44240
H453        H  0.98613619  0.55625196  0.42983354     0.42960
H454        H  0.94543022  0.53743779  0.27298575     0.43100
H455        H  0.08479444  0.53946562  0.24507672     0.43450
C456        C  0.19874234  0.43075071  0.22043254     0.03000
C457        C  0.17447755  0.43510748  0.23189288    -0.13150
C458        C  0.16565141  0.41969005  0.25290397     0.00500
C459        C  0.18139723  0.39938521  0.26230508    -0.11670
C460        C  0.20617187  0.39515297  0.25169037     0.03000
C461        C  0.21474372  0.41066677  0.23038285    -0.11090
H462        H  0.16262937  0.45111423  0.22468878     0.08590
H463        H  0.17468175  0.38717457  0.27837239     0.06120
H464        H  0.23374487  0.40739216  0.22189950     0.05970
C465        C  0.87044993  0.42838099  0.21546567     0.03000
C466        C  0.85538646  0.40673859  0.22338947    -0.13150
C467        C  0.86398224  0.39051661  0.24403777     0.00500
C468        C  0.88751003  0.39606107  0.25678685    -0.11670
C469        C  0.90239471  0.41757814  0.24913443     0.03000
C470        C  0.89397383  0.43355106  0.22842396    -0.11090
H471        H  0.83684046  0.40290954  0.21401835     0.08590
H472        H  0.89360502  0.38436117  0.27351499     0.06120
H473        H  0.90527599  0.45067606  0.22309823     0.05970
C474        C  0.90200247  0.67332278  0.24632380     0.03000
C475        C  0.89355515  0.66610515  0.22094394    -0.13150
C476        C  0.86895316  0.67295445  0.21178916     0.00500
C477        C  0.85389150  0.69035356  0.22660596    -0.11670
C478        C  0.86274730  0.69976102  0.25107925     0.03000
C479        C  0.88663061  0.69067594  0.26129114    -0.11090
H480        H  0.90494499  0.65234148  0.20951903     0.08590
H481        H  0.83473542  0.69573153  0.21959952     0.06120
H482        H  0.89261571  0.69627202  0.28099727     0.05970
O483        O  0.73701261  0.59711557  0.02269036    -0.75420
O484        O  0.75747858  0.57316928  0.99126748    -0.54330
C485        C  0.74196708  0.59152142  0.99838478     0.78310
O486        O  0.83390472  0.60586929  0.10917326    -0.60020
O487        O  0.81526322  0.58092719  0.14116167    -0.53050
C488        C  0.82873299  0.60072819  0.13348148     0.70330
O489        O  0.83135770  0.60370655  0.02050875    -0.74580
O490        O  0.81051290  0.57645790  0.99188789    -0.55140
C491        C  0.82500055  0.59624540  0.99707872     0.76330
O492        O  0.73880367  0.60037326  0.11154965    -0.59720
O493        O  0.76078968  0.57731685  0.14304462    -0.52840
C494        C  0.74559495  0.59589339  0.13554696     0.72920
Zr495      Zr  0.74665446  0.58269979  0.06767980     2.54710
O496        O  0.73678810  0.62922971  0.06555835    -0.80290
O497        O  0.70029380  0.57362310  0.06933251    -0.93700
Zr498      Zr  0.82433418  0.58783043  0.06546303     2.64680
O499        O  0.82590909  0.63546715  0.06300493    -0.98660
O500        O  0.87148276  0.58480785  0.06478665    -0.80720
O501        O  0.78464644  0.58530356  0.04173820    -0.84080
O502        O  0.78622082  0.58628170  0.09142252    -2.18790
O503        O  0.74665592  0.48940011  0.11489589    -0.67470
O504        O  0.76616286  0.51609943  0.14521401    -0.52030
C505        C  0.75318610  0.49552897  0.13860715     0.71300
O506        O  0.83189399  0.48977828  0.02398134    -0.60370
O507        O  0.81286599  0.51578993  0.99303829    -0.52350
C508        C  0.82592567  0.49554189  0.99999614     0.73110
O509        O  0.83940154  0.49536227  0.11151883    -0.71770
O510        O  0.81889556  0.51987188  0.14272592    -0.50450
C511        C  0.83399744  0.50106357  0.13566256     0.74490
O512        O  0.74795472  0.48571302  0.02698694    -0.67100
O513        O  0.76091222  0.51296294  0.99395986    -0.54300
C514        C  0.75126049  0.49141944  0.00254266     0.72870
Zr515      Zr  0.75121216  0.50630855  0.07009016     2.77540
O516        O  0.74165483  0.45950240  0.07005094    -0.97850
O517        O  0.70437978  0.51244179  0.06976239    -0.78670
Zr518      Zr  0.82905658  0.51116380  0.06717602     2.70070
O519        O  0.84472517  0.46625595  0.06918023    -0.79920
O520        O  0.87435918  0.52387899  0.06250501    -0.99000
Zr521      Zr  0.78588288  0.54564565  0.01741920     2.21500
Zr522      Zr  0.78931657  0.54814782  0.11849421     2.11130
O523        O  0.79103742  0.50877091  0.09319754    -2.47690
O524        O  0.78926074  0.50754430  0.04400347    -0.79710
O525        O  0.74885839  0.54525653  0.09545868    -0.71910
O526        O  0.82654834  0.54879180  0.03996925    -2.32860
O527        O  0.74693962  0.54358123  0.04264463    -2.29070
O528        O  0.82820345  0.55016886  0.09280913    -0.73660
H529        H  0.78572217  0.60207539  0.10186031     0.78330
H530        H  0.84087754  0.54930302  0.02772110     0.79420
H531        H  0.79248200  0.49338376  0.10399547     0.81650
H532        H  0.73180982  0.54223013  0.03143250     0.79250
H533        H  0.87598410  0.58323932  0.04588129     0.42290
H534        H  0.88125904  0.52377833  0.08074169     0.41260
H535        H  0.82889294  0.45558616  0.07194215     0.40940
H536        H  0.75553135  0.45142150  0.08084076     0.38870
H537        H  0.69961936  0.51373573  0.08862410     0.42000
H538        H  0.69483368  0.57264028  0.05062550     0.36790
H539        H  0.75374732  0.63767173  0.06203229     0.42900
H540        H  0.81307756  0.64160731  0.07613408     0.39320
H541        H  0.72563693  0.45749472  0.08061606     0.44240
H542        H  0.69251665  0.59009863  0.07590996     0.42960
H543        H  0.84299865  0.64038722  0.07050684     0.43100
H544        H  0.88266997  0.50863465  0.05390770     0.43450
C545        C  0.68425532  0.93973518  0.37006092     0.03000
C546        C  0.69755476  0.91908652  0.35789490    -0.13150
C547        C  0.71900472  0.90772962  0.37056105     0.00500
C548        C  0.72662015  0.91655794  0.39563965    -0.11670
C549        C  0.71324970  0.93721536  0.40785886     0.03000
C550        C  0.69283285  0.94918818  0.39442028    -0.11090
H551        H  0.69100347  0.91153355  0.33903458     0.08590
H552        H  0.74273170  0.90719214  0.40562459     0.06120
H553        H  0.68340126  0.96615840  0.40294053     0.05970
C554        C  0.90653507  0.69186481  0.40256410     0.03000
C555        C  0.91100256  0.70183579  0.42780988    -0.13150
C556        C  0.89826242  0.72438934  0.43661157     0.00500
C557        C  0.87977534  0.73630796  0.42023261    -0.11670
C558        C  0.87537005  0.72680934  0.39459654     0.03000
C559        C  0.88907070  0.70469312  0.38565537    -0.11090
H560        H  0.92595695  0.69298503  0.43994397     0.08590
H561        H  0.86979088  0.75377171  0.42687561     0.06120
H562        H  0.88637219  0.69770462  0.36564589     0.05970
C563        C  0.79612616  0.77402487  0.30496726     0.02160
C564        C  0.80677033  0.78674506  0.32736470     0.02160
C565        C  0.79620319  0.81073478  0.33626895     0.02160
C566        C  0.77384731  0.82097210  0.32369707     0.02160
C567        C  0.76219844  0.80751829  0.30219938     0.02160
C568        C  0.77276635  0.78334573  0.29354335     0.02160
C569        C  0.70787331  0.71334050  0.23161514     0.03000
C570        C  0.71809900  0.68934068  0.22302557    -0.13150
C571        C  0.70379423  0.67318111  0.20596957     0.00500
C572        C  0.67891016  0.68080068  0.19795399    -0.11670
C573        C  0.66856055  0.70491089  0.20594211     0.03000
C574        C  0.68321023  0.72122585  0.22273914    -0.11090
H575        H  0.73776000  0.68396793  0.22838341     0.08590
H576        H  0.66870238  0.66916176  0.18332044     0.06120
H577        H  0.67586096  0.74038733  0.22808153     0.05970
O578        O  0.58421078  0.81185590  0.01805934    -0.75420
O579        O  0.55757994  0.79021115  0.98975035    -0.54330
C580        C  0.57748492  0.80445689  0.99472307     0.78310
O581        O  0.59013010  0.72843736  0.11321690    -0.60020
O582        O  0.56532539  0.74932784  0.14398926    -0.53050
C583        C  0.58535997  0.73606438  0.13696509     0.70330
O584        O  0.58665294  0.72360174  0.02413142    -0.74580
O585        O  0.55901307  0.73836968  0.99257683    -0.55140
C586        C  0.58004485  0.72694789  0.99983311     0.76330
O587        O  0.58571963  0.82207815  0.10568736    -0.59720
O588        O  0.56370454  0.80229062  0.13906610    -0.52840
C589        C  0.58165974  0.81749266  0.13026695     0.72920
Zr590      Zr  0.56755344  0.80957248  0.06300155     2.54710
O591        O  0.61329392  0.82142660  0.06143173    -0.80290
O592        O  0.55736522  0.85581523  0.05780130    -0.93700
Zr593      Zr  0.57060446  0.73104327  0.06898681     2.64680
O594        O  0.61717709  0.72296850  0.06724131    -0.98660
O595        O  0.56479969  0.68383472  0.07212980    -0.80720
O596        O  0.56882563  0.76844400  0.04139598    -0.84080
O597        O  0.57039704  0.77226307  0.09030511    -2.18790
O598        O  0.47790337  0.81968700  0.11109245    -0.67470
O599        O  0.50469863  0.80180327  0.14178256    -0.52030
C600        C  0.48508960  0.81583339  0.13518179     0.71300
O601        O  0.47335034  0.72299231  0.02868260    -0.60370
O602        O  0.49822321  0.73792902  0.99504186    -0.52350
C603        C  0.47777420  0.72665895  0.00392303     0.73110
O604        O  0.47961825  0.72298277  0.11715538    -0.71770
O605        O  0.50353227  0.74795259  0.14574216    -0.50450
C606        C  0.48499754  0.73187775  0.14031199     0.74490
O607        O  0.47305311  0.81150752  0.02216991    -0.67100
O608        O  0.49828686  0.79019334  0.99240992    -0.54300
C609        C  0.47874813  0.80460537  0.99843143     0.72870
Zr610      Zr  0.49151988  0.80699602  0.06646167     2.77540
O611        O  0.44434649  0.80998873  0.06772531    -0.97850
O612        O  0.49540222  0.85430101  0.06190607    -0.78670
Zr613      Zr  0.49457072  0.72851782  0.07174063     2.70070
O614        O  0.44951404  0.71493028  0.07632259    -0.79920
O615        O  0.50436200  0.68191603  0.07087002    -0.99000
Zr616      Zr  0.52924049  0.76520616  0.01762876     2.21500
Zr617      Zr  0.53317271  0.77267366  0.11798509     2.11130
O618        O  0.49353151  0.76953715  0.09381008    -2.47690
O619        O  0.49159048  0.76596458  0.04449833    -0.79710
O620        O  0.53069698  0.81092547  0.09098330    -0.71910
O621        O  0.53164474  0.72669959  0.04420184    -2.32860
O622        O  0.52849180  0.80714038  0.03852052    -2.29070
O623        O  0.53356816  0.73075773  0.09688322    -0.73660
H624        H  0.58622602  0.77397777  0.10019814     0.78330
H625        H  0.53169252  0.71103122  0.03349043     0.79420
H626        H  0.47860669  0.77012552  0.10522228     0.81650
H627        H  0.52756108  0.82113300  0.02574929     0.79250
H628        H  0.56986791  0.67713142  0.05455215     0.42290
H629        H  0.50388958  0.67654293  0.08961424     0.41260
H630        H  0.43956244  0.73149919  0.07577251     0.40940
H631        H  0.43900867  0.79843952  0.08242377     0.38870
H632        H  0.50240383  0.86031233  0.07908079     0.42000
H633        H  0.56296328  0.86006423  0.03963706     0.36790
H634        H  0.62256128  0.80472650  0.06449518     0.42900
H635        H  0.62527643  0.73750220  0.07728261     0.39320
H636        H  0.44068191  0.82796853  0.07403192     0.44240
H637        H  0.57004823  0.86496222  0.06927815     0.42960
H638        H  0.62014941  0.70713566  0.07807879     0.43100
H639        H  0.48874641  0.67373298  0.06294210     0.43450
C640        C  0.41964214  0.86045354  0.21659231     0.03000
C641        C  0.40140015  0.84657976  0.23152033    -0.13150
C642        C  0.38621702  0.85969766  0.25034088     0.00500
C643        C  0.38873581  0.88709374  0.25327563    -0.11670
C644        C  0.40742873  0.90120810  0.23856445     0.03000
C645        C  0.42327071  0.88717481  0.22101492    -0.11090
H646        H  0.39906649  0.82567598  0.22857490     0.08590
H647        H  0.37637769  0.89712649  0.26724197     0.06120
H648        H  0.43902992  0.89678956  0.21080433     0.05970
C649        C  0.64943264  0.86346944  0.20906324     0.03000
C650        C  0.66948478  0.85072264  0.22276911    -0.13150
C651        C  0.68224880  0.86326290  0.24386792     0.00500
C652        C  0.67449968  0.88868748  0.25143278    -0.11670
C653        C  0.65480333  0.90162919  0.23738129     0.03000
C654        C  0.64266563  0.88901659  0.21624163    -0.11090
H655        H  0.67509928  0.83105200  0.21713422     0.08590
H656        H  0.68341352  0.89809560  0.26835438     0.06120
H657        H  0.62669250  0.89868990  0.20627702     0.05970
C658        C  0.72021011  0.36581443  0.21875294     0.03000
C659        C  0.72967844  0.39110165  0.21368089    -0.13150
C660        C  0.71578568  0.40829013  0.19729694     0.00500
C661        C  0.69255837  0.39973498  0.18563453    -0.11670
C662        C  0.68282917  0.37451786  0.19048102     0.03000
C663        C  0.69662340  0.35777036  0.20744674    -0.11090
H664        H  0.74819756  0.39713057  0.22188620     0.08590
H665        H  0.68298431  0.41218453  0.17133322     0.06120
H666        H  0.68960612  0.33806015  0.21097413     0.05970
C667        C  0.80750241  0.27162232  0.32550998     0.02160
C668        C  0.81693735  0.29602430  0.31636931     0.02160
C669        C  0.80568831  0.30766285  0.29376936     0.02160
C670        C  0.78381764  0.29601066  0.28133746     0.02160
C671        C  0.77471135  0.27140240  0.29024201     0.02160
C672        C  0.78560275  0.26006531  0.31314776     0.02160
C673        C  0.68840107  0.15273883  0.36863688     0.03000
C674        C  0.70399637  0.17078144  0.35520773    -0.13150
C675        C  0.72694014  0.18007295  0.36689854     0.00500
C676        C  0.73426761  0.17109474  0.39199846    -0.11670
C677        C  0.71860508  0.15302231  0.40542480     0.03000
C678        C  0.69563191  0.14417161  0.39373310    -0.11090
H679        H  0.69825133  0.17767476  0.33585423     0.08590
H680        H  0.75225191  0.17783564  0.40084984     0.06120
H681        H  0.68391207  0.12954855  0.40367175     0.05970
O682        O  0.47945578  0.99138690  0.25542858    -0.75420
O683        O  0.45036692  0.01912964  0.27439564    -0.54330
C684        C  0.45616291  0.99803024  0.26188351     0.78310
O685        O  0.57321278  0.99468142  0.34282699    -0.60020
O686        O  0.60252721  0.01737542  0.31832478    -0.53050
C687        C  0.59640275  0.99912923  0.33449055     0.70330
O688        O  0.48688531  0.99331476  0.34408277    -0.74580
O689        O  0.45544016  0.02018150  0.32792179    -0.55140
C690        C  0.46309966  0.99958554  0.34029832     0.76330
O691        O  0.56637828  0.98630135  0.25196494    -0.59720
O692        O  0.59921124  0.01233056  0.26728498    -0.52840
C693        C  0.59050490  0.99092179  0.25715729     0.72920
Zr694      Zr  0.52414572  0.00811814  0.25731381     2.54710
O695        O  0.52071917  0.96199028  0.24558579    -0.80290
O696        O  0.52255501  0.01529610  0.20992734    -0.93700
Zr697      Zr  0.52928456  0.01225616  0.33681662     2.64680
O698        O  0.52800631  0.96707812  0.35219278    -0.98660
O699        O  0.53050259  0.02451465  0.38320149    -0.80720
O700        O  0.50252906  0.01028260  0.29854473    -0.84080
O701        O  0.55025011  0.00866594  0.29585356    -2.18790
O702        O  0.57125373  0.10327621  0.24714983    -0.67470
O703        O  0.60179220  0.07574469  0.26422164    -0.52030
C704        C  0.59498226  0.09687156  0.25240024     0.71300
O705        O  0.48891081  0.10898142  0.34038838    -0.60370
O706        O  0.45672772  0.08210374  0.32538662    -0.52350
C707        C  0.46488691  0.10281411  0.33726788     0.73110
O708        O  0.57553230  0.10325944  0.33918909    -0.71770
O709        O  0.60338052  0.07633968  0.31740175    -0.50450
C710        C  0.59848191  0.09620179  0.33218222     0.74490
O711        O  0.48424712  0.10501514  0.25274512    -0.67100
O712        O  0.45289771  0.08103195  0.27314527    -0.54300
C713        C  0.46058676  0.10104869  0.25993318     0.72870
Zr714      Zr  0.52717454  0.08473738  0.25364421     2.77540
O715        O  0.52553766  0.12911098  0.23601571    -0.97850
O716        O  0.52433714  0.07297192  0.20721433    -0.78670
Zr717      Zr  0.53086860  0.08841471  0.33291725     2.70070
O718        O  0.53449248  0.13575953  0.33731073    -0.79920
O719        O  0.53128204  0.08410423  0.38070256    -0.99000
Zr720      Zr  0.47803934  0.04966580  0.29812619     2.21500
Zr721      Zr  0.57701111  0.04645520  0.29190711     2.11130
O722        O  0.55268864  0.08583422  0.29230898    -2.47690
O723        O  0.50471500  0.08756484  0.29446310    -0.79710
O724        O  0.55168480  0.04532507  0.25239473    -0.71910
O725        O  0.50393629  0.05098946  0.33731025    -2.32860
O726        O  0.49951925  0.04737646  0.25626781    -2.29070
O727        O  0.55626524  0.04963147  0.33390683    -0.73660
H728        H  0.55987339  0.99261516  0.29699050     0.78330
H729        H  0.49332282  0.05201106  0.35296354     0.79420
H730        H  0.56368269  0.10104610  0.29233281     0.81650
H731        H  0.48712669  0.04716027  0.24194007     0.79250
H732        H  0.51403110  0.01764420  0.39048309     0.42290
H733        H  0.54962408  0.08033749  0.38513326     0.41260
H734        H  0.53594453  0.14215406  0.31894581     0.40940
H735        H  0.53523748  0.14002934  0.24885693     0.38870
H736        H  0.54228590  0.07502797  0.20058472     0.42000
H737        H  0.50480123  0.00986912  0.20474058     0.36790
H738        H  0.51809216  0.95291143  0.26261849     0.42900
H739        H  0.54060515  0.95732049  0.34123163     0.39320
H740        H  0.53647659  0.12886294  0.21999054     0.44240
H741        H  0.53396493  0.00157656  0.20248775     0.42960
H742        H  0.53564440  0.96750854  0.37010661     0.43100
H743        H  0.52839958  0.10213393  0.38727785     0.43450
O744        O  0.48819177  0.35352303  0.02100489    -0.75420
O745        O  0.45634417  0.33280145  0.04408833    -0.54330
C746        C  0.46426264  0.34822467  0.02574114     0.78310
O747        O  0.56867444  0.25491025  0.01564267    -0.60020
O748        O  0.60195978  0.27209630  0.03940242    -0.53050
C749        C  0.59295531  0.25851721  0.01994279     0.70330
O750        O  0.48212481  0.25754247  0.01596210    -0.74580
O751        O  0.45252746  0.27898133  0.04148730    -0.55140
C752        C  0.45886785  0.26440168  0.02178550     0.76330
O753        O  0.57425017  0.35006963  0.02091282    -0.59720
O754        O  0.60372417  0.32565045  0.04336601    -0.52840
C755        C  0.59756469  0.34203202  0.02521305     0.72920
Zr756      Zr  0.53073298  0.34300963  0.03849066     2.54710
O757        O  0.53134586  0.35726029  0.99272543    -0.80290
O758        O  0.53279904  0.38878208  0.05183697    -0.93700
Zr759      Zr  0.52590538  0.26482274  0.03218466     2.64680
O760        O  0.52330303  0.26539385  0.98421702    -0.98660
O761        O  0.52495048  0.21714346  0.03279344    -0.80720
O762        O  0.50387876  0.30531543  0.03456372    -0.84080
O763        O  0.55258931  0.30252780  0.03402892    -2.18790
O764        O  0.57519232  0.34443282  0.13064839    -0.67470
O765        O  0.60407260  0.32276043  0.10449865    -0.52030
C766        C  0.59838270  0.33743453  0.12434049     0.71300
O767        O  0.48330847  0.25481009  0.12724568    -0.60370
O768        O  0.45292245  0.27557492  0.10207505    -0.52350
C769        C  0.45971492  0.26116498  0.12163747     0.73110
O770        O  0.57067226  0.24734482  0.12415284    -0.71770
O771        O  0.60223082  0.26786986  0.10044433    -0.50450
C772        C  0.59465298  0.25245365  0.11890740     0.74490
O773        O  0.48772321  0.34466996  0.13375907    -0.67100
O774        O  0.45627037  0.32848598  0.10653204    -0.54300
C775        C  0.46382366  0.34058540  0.12744505     0.72870
Zr776      Zr  0.53081020  0.33690836  0.11514373     2.77540
O777        O  0.53136923  0.33777408  0.16318603    -0.97850
O778        O  0.53088001  0.38454989  0.11322113    -0.78670
Zr779      Zr  0.52704203  0.25899801  0.10903763     2.70070
O780        O  0.52796329  0.24730979  0.15553789    -0.79920
O781        O  0.52276710  0.21267191  0.09847542    -0.99000
Zr782      Zr  0.47868371  0.30309461  0.07352675     2.21500
Zr783      Zr  0.57873396  0.29805493  0.07254481     2.11130
O784        O  0.55365317  0.29675883  0.11215547    -2.47690
O785        O  0.50432697  0.29907473  0.11238966    -0.79710
O786        O  0.55699709  0.33924104  0.07661348    -0.71910
O787        O  0.50059431  0.26209531  0.07086417    -2.32860
O788        O  0.50464381  0.34190539  0.07691165    -2.29070
O789        O  0.55240776  0.25953500  0.07008556    -0.73660
H790        H  0.56288222  0.30302200  0.01817089     0.78330
H791        H  0.48847122  0.24765957  0.06995947     0.79420
H792        H  0.56456620  0.29534586  0.12757334     0.81650
H793        H  0.49395057  0.35738339  0.07816749     0.79250
H794        H  0.50680651  0.21258571  0.03728094     0.42290
H795        H  0.54014072  0.20752126  0.09199376     0.41260
H796        H  0.53058624  0.26419451  0.16481523     0.40940
H797        H  0.54423266  0.32433824  0.16837415     0.38870
H798        H  0.54908073  0.38927737  0.10915553     0.42000
H799        H  0.51541679  0.39585644  0.04755444     0.36790
H800        H  0.53004876  0.34082552  0.98240480     0.42900
H801        H  0.53897839  0.27495440  0.97831056     0.39320
H802        H  0.53955476  0.35471086  0.16791293     0.44240
H803        H  0.54452953  0.39704823  0.03882838     0.42960
H804        H  0.52624428  0.24700835  0.97880098     0.43100
H805        H  0.52119970  0.20396084  0.11582959     0.43450
C806        C  0.36004894  0.21788405  0.23439073     0.03000
C807        C  0.36867758  0.22966073  0.21094840    -0.13150
C808        C  0.38733006  0.21714918  0.19533140     0.00500
C809        C  0.39614681  0.19225764  0.20237964    -0.11670
C810        C  0.38851980  0.18076416  0.22618532     0.03000
C811        C  0.37009375  0.19342063  0.24202002    -0.11090
H812        H  0.36279842  0.24949331  0.20625643     0.08590
H813        H  0.41171327  0.18339202  0.19110144     0.06120
H814        H  0.36512484  0.18532436  0.26110109     0.05970
C815        C  0.41478054  0.19521353  0.89491288     0.03000
C816        C  0.41879769  0.20345497  0.92098703    -0.13150
C817        C  0.40599902  0.22553874  0.93115785     0.00500
C818        C  0.38923160  0.23966069  0.91447601    -0.11670
C819        C  0.38563815  0.23206510  0.88813015     0.03000
C820        C  0.39784260  0.20942251  0.87860694    -0.11090
H821        H  0.43310332  0.19333668  0.93285080     0.08590
H822        H  0.37943141  0.25699905  0.92170613     0.06120
H823        H  0.39444077  0.20317583  0.85847157     0.05970
C824        C  0.65456593  0.22030611  0.93166229     0.03000
C825        C  0.64817098  0.19495660  0.92293358    -0.13150
C826        C  0.65103407  0.18785450  0.89658794     0.00500
C827        C  0.66613984  0.20351895  0.88001142    -0.11670
C828        C  0.67683893  0.22704698  0.88960536     0.03000
C829        C  0.66977371  0.23621495  0.91492343    -0.11090
H830        H  0.63751273  0.18176838  0.93569721     0.08590
H831        H  0.66907630  0.19780459  0.85964434     0.06120
H832        H  0.67549628  0.25572556  0.92096554     0.05970
O833        O  0.57821078  0.99353857  0.77191370    -0.75420
O834        O  0.55623328  0.96388717  0.79668729    -0.54330
C835        C  0.57260931  0.96985464  0.77871837     0.78310
O836        O  0.58191500  0.08484845  0.87267551    -0.60020
O837        O  0.55979870  0.11485319  0.84820288    -0.53050
C838        C  0.57768655  0.10834156  0.86462571     0.70330
O839        O  0.58586872  0.00018903  0.86858550    -0.74580
O840        O  0.56481880  0.96979908  0.84366965    -0.55140
C841        C  0.58326629  0.97720649  0.85914802     0.76330
O842        O  0.58407927  0.08168743  0.77379637    -0.59720
O843        O  0.56066457  0.11327730  0.79488839    -0.52840
C844        C  0.57946584  0.10572934  0.78009531     0.72920
Zr845      Zr  0.56652672  0.03862021  0.78407003     2.54710
O846        O  0.60999584  0.02626156  0.79781901    -0.80290
O847        O  0.56688758  0.04563004  0.73663022    -0.93700
Zr848      Zr  0.56451788  0.04148638  0.86297219     2.64680
O849        O  0.61127593  0.03511952  0.85963689    -0.98660
O850        O  0.55768395  0.04546038  0.91027203    -0.80720
O851        O  0.54267172  0.03225623  0.82289935    -0.84080
O852        O  0.56892213  0.06443794  0.82294845    -2.18790
O853        O  0.47809577  0.08468626  0.77140591    -0.67470
O854        O  0.50207617  0.11520538  0.79332099    -0.52030
C855        C  0.48389929  0.10863920  0.77729279     0.71300
O856        O  0.46699951  0.99665718  0.86262237    -0.60370
O857        O  0.49550028  0.96585958  0.84844756    -0.52350
C858        C  0.47350826  0.97267779  0.85798632     0.73110
O859        O  0.47297820  0.08410753  0.86814770    -0.71770
O860        O  0.49902464  0.11414718  0.84797011    -0.50450
C861        C  0.47923693  0.10788028  0.86209787     0.74490
O862        O  0.47522940  0.99600333  0.77234260    -0.67100
O863        O  0.49639625  0.96500805  0.79591798    -0.54300
C864        C  0.47918731  0.97210299  0.77903697     0.72870
Zr865      Zr  0.49125969  0.03963929  0.78202340     2.77540
O866        O  0.44423730  0.04095186  0.77695964    -0.97850
O867        O  0.49590912  0.03835077  0.73428649    -0.78670
Zr868      Zr  0.48966556  0.03934203  0.86148651     2.70070
O869        O  0.44496636  0.04275912  0.87654803    -0.79920
O870        O  0.49887681  0.03501511  0.90835555    -0.99000
Zr871      Zr  0.52668315  0.98972082  0.82289591     2.21500
Zr872      Zr  0.52965542  0.08957341  0.82173204     2.11130
O873        O  0.49079351  0.06398323  0.82159228    -2.47690
O874        O  0.48786288  0.01448370  0.82158521    -0.79710
O875        O  0.52954402  0.06562690  0.78096654    -0.71910
O876        O  0.52796300  0.01244946  0.86426971    -2.32860
O877        O  0.52874264  0.01214650  0.78165709    -2.29070
O878        O  0.52698604  0.06749195  0.86344048    -0.73660
H879        H  0.58449247  0.07497111  0.82313662     0.78330
H880        H  0.52804329  0.00081494  0.87927967     0.79420
H881        H  0.47565280  0.07504072  0.82076165     0.81650
H882        H  0.52862351  0.00055241  0.76658308     0.79250
H883        H  0.55861338  0.02724218  0.91686859     0.42290
H884        H  0.49245581  0.05154747  0.91619503     0.41260
H885        H  0.43453472  0.04341465  0.86013853     0.40940
H886        H  0.43836057  0.05491853  0.78911668     0.38870
H887        H  0.50509367  0.05481297  0.72985977     0.42000
H888        H  0.55493114  0.03212126  0.72956133     0.36790
H889        H  0.60694367  0.01382783  0.81241601     0.42900
H890        H  0.61737585  0.04921625  0.84777808     0.39320
H891        H  0.44126560  0.04812643  0.75908018     0.44240
H892        H  0.58433467  0.03977913  0.73100960     0.42960
H893        H  0.61811370  0.04021322  0.87718685     0.43100
H894        H  0.48651465  0.02148990  0.91453046     0.43450
C895        C  0.67503580  0.37588353  0.95030949     0.03000
C896        C  0.68625423  0.40024634  0.95570412    -0.13150
C897        C  0.70819173  0.40857890  0.94190133     0.00500
C898        C  0.71849290  0.39288050  0.92193624    -0.11670
C899        C  0.70717003  0.36852408  0.91613871     0.03000
C900        C  0.68558225  0.35987080  0.93057743    -0.11090
H901        H  0.67894873  0.41197183  0.97192018     0.08590
H902        H  0.73594578  0.39904873  0.91175518     0.06120
H903        H  0.67720623  0.34076335  0.92665632     0.05970
C904        C  0.85689416  0.37186393  0.73207221     0.03000
C905        C  0.86685664  0.39678888  0.73827399    -0.13150
C906        C  0.88476740  0.40884504  0.72130414     0.00500
C907        C  0.89247643  0.39598709  0.69829209    -0.11670
C908        C  0.88404529  0.37049316  0.69302269     0.03000
C909        C  0.86558984  0.35874812  0.70941830    -0.11090
H910        H  0.86184556  0.40604514  0.75681840     0.08590
H911        H  0.90789101  0.40435816  0.68641137     0.06120
H912        H  0.85980621  0.33860966  0.70591497     0.05970
C913        C  0.77965543  0.32158910  0.82237640     0.02160
C914        C  0.75781120  0.30976089  0.83421540     0.02160
C915        C  0.74747992  0.28626204  0.82375365     0.02160
C916        C  0.75853246  0.27523902  0.80079505     0.02160
C917        C  0.78122521  0.28643277  0.78991695     0.02160
C918        C  0.79027699  0.31071632  0.79933805     0.02160
C919        C  0.65672804  0.17546991  0.73817885     0.03000
C920        C  0.66985493  0.19610623  0.75069168    -0.13150
C921        C  0.69264491  0.20636277  0.73948313     0.00500
C922        C  0.70212005  0.19586477  0.71575951    -0.11670
C923        C  0.68945674  0.17464006  0.70373192     0.03000
C924        C  0.66612529  0.16556300  0.71434455    -0.11090
H925        H  0.66361981  0.20265936  0.76999968     0.08590
H926        H  0.72015342  0.20318056  0.70766246     0.06120
H927        H  0.65673477  0.14855644  0.70567189     0.05970
O928        O  0.73070079  0.98880196  0.61078864    -0.75420
O929        O  0.74442994  0.01583444  0.64378723    -0.54330
C930        C  0.73297970  0.99508273  0.63525110     0.78310
O931        O  0.83135871  0.98948754  0.53518097    -0.60020
O932        O  0.81567513  0.01323892  0.50081697    -0.53050
C933        C  0.82866136  0.99392661  0.51031741     0.70330
O934        O  0.81645358  0.99020483  0.62229449    -0.74580
O935        O  0.79426285  0.01645174  0.65088055    -0.55140
C936        C  0.80786493  0.99612535  0.64528742     0.76330
O937        O  0.73556718  0.98959300  0.52287900    -0.59720
O938        O  0.76184008  0.01256190  0.49507282    -0.52840
C939        C  0.74535748  0.99432416  0.50004832     0.72920
Zr940      Zr  0.74015149  0.00700786  0.56749696     2.54710
O941        O  0.73074231  0.96030010  0.56613495    -0.80290
O942        O  0.69371134  0.01527200  0.56463649    -0.93700
Zr943      Zr  0.81752922  0.00726709  0.57772676     2.64680
O944        O  0.82490099  0.96054855  0.58343044    -0.98660
O945        O  0.86373812  0.01404711  0.58516318    -0.80720
O946        O  0.77573517  0.00776504  0.59696144    -0.84080
O947        O  0.78199790  0.00523378  0.54811260    -2.18790
O948        O  0.73776449  0.09827358  0.51887742    -0.67470
O949        O  0.76229731  0.07210071  0.49257849    -0.52030
C950        C  0.74712413  0.09163787  0.49627494     0.71300
O951        O  0.81787228  0.10272665  0.61986336    -0.60370
O952        O  0.79630595  0.07716109  0.64952628    -0.52350
C953        C  0.81013340  0.09714217  0.64330645     0.73110
O954        O  0.82891940  0.10062507  0.53211675    -0.71770
O955        O  0.81360429  0.07442963  0.49906054    -0.50450
C956        C  0.82519911  0.09509356  0.50757093     0.74490
O957        O  0.72912678  0.10385882  0.60640534    -0.67100
O958        O  0.74301769  0.07893253  0.64091171    -0.54300
C959        C  0.73088383  0.09870310  0.63111761     0.72870
Zr960      Zr  0.74042069  0.08343992  0.56481264     2.77540
O961        O  0.73210271  0.13038554  0.56269651    -0.97850
O962        O  0.69401054  0.07561783  0.56025699    -0.78670
Zr963      Zr  0.81777261  0.08362375  0.57572262     2.70070
O964        O  0.82954139  0.12979260  0.57687078    -0.79920
O965        O  0.86373295  0.07466356  0.58205676    -0.99000
Zr966      Zr  0.77241011  0.04700447  0.62180748     2.21500
Zr967      Zr  0.78584730  0.04352917  0.52169265     2.11130
O968        O  0.78220764  0.08336060  0.54604012    -2.47690
O969        O  0.77585081  0.08490829  0.59486272    -0.79710
O970        O  0.74311663  0.04426082  0.53981250    -0.71910
O971        O  0.81501308  0.04621776  0.60314854    -2.32860
O972        O  0.73595842  0.04615179  0.59244801    -2.29070
O973        O  0.82238478  0.04467898  0.55063883    -0.73660
H974        H  0.78317578  0.98938778  0.53778883     0.78330
H975        H  0.82823385  0.04654417  0.61668859     0.79420
H976        H  0.78295793  0.09871102  0.53503772     0.81650
H977        H  0.71977787  0.04651765  0.60203655     0.79250
H978        H  0.86624296  0.01051797  0.60419108     0.42290
H979        H  0.87096082  0.07415353  0.56398948     0.41260
H980        H  0.81271415  0.13912400  0.57636837     0.40940
H981        H  0.74645013  0.13769372  0.55200940     0.38870
H982        H  0.69132733  0.07289581  0.54110880     0.42000
H983        H  0.68689437  0.01034681  0.58218531     0.36790
H984        H  0.74795053  0.95184257  0.56776812     0.42900
H985        H  0.81372908  0.95199265  0.57004094     0.39320
H986        H  0.71642969  0.13225152  0.55152625     0.44240
H987        H  0.68708329  0.00148978  0.55261517     0.42960
H988        H  0.84292964  0.95756540  0.57746146     0.43100
H989        H  0.87080595  0.09099105  0.58982953     0.43450
C990        C  0.85883080  0.21407929  0.40937681     0.03000
C991        C  0.84821821  0.18975279  0.41694436    -0.13150
C992        C  0.85961591  0.17550376  0.43750518     0.00500
C993        C  0.88192962  0.18503572  0.44975683    -0.11670
C994        C  0.89206274  0.20955847  0.44341683     0.03000
C995        C  0.88060050  0.22412818  0.42299315    -0.11090
H996        H  0.83042880  0.18273336  0.40791978     0.08590
H997        H  0.88993179  0.17431739  0.46635744     0.06120
H998        H  0.88831790  0.24323076  0.41796028     0.05970
C999        C  0.88570302  0.20847432  0.70333162     0.03000
C1000       C  0.87305426  0.22539351  0.72100460    -0.13150
C1001       C  0.84994402  0.21757584  0.73329931     0.00500
C1002       C  0.83954228  0.19272309  0.72805262    -0.11670
C1003       C  0.85210801  0.17568491  0.71058961     0.03000
C1004       C  0.87557312  0.18333741  0.69895446    -0.11090
H1005       H  0.88027553  0.24514293  0.72391634     0.08590
H1006       H  0.82069189  0.18745942  0.73592503     0.06120
H1007       H  0.88433050  0.17087055  0.68411010     0.05970
C1008       C  0.37896425  0.21670298  0.73596567     0.03000
C1009       C  0.36997116  0.20883113  0.71085048    -0.13150
C1010       C  0.38409718  0.19053411  0.69584840     0.00500
C1011       C  0.40769058  0.18119281  0.70552566    -0.11670
C1012       C  0.41548117  0.18658094  0.73138048     0.03000
C1013       C  0.40173645  0.20523053  0.74624824    -0.11090
H1014       H  0.35121218  0.21546086  0.70386938     0.08590
H1015       H  0.41787769  0.16614142  0.69452431     0.06120
H1016       H  0.40758045  0.20929828  0.76637744     0.05970
C1017       C  0.30717437  0.31760726  0.83182196     0.02160
C1018       C  0.28485121  0.32828767  0.81929388     0.02160
C1019       C  0.27502063  0.31654912  0.79583839     0.02160
C1020       C  0.28722327  0.29378980  0.78562872     0.02160
C1021       C  0.31063331  0.28454424  0.79688928     0.02160
C1022       C  0.31900410  0.29478786  0.82139032     0.02160
O1023       O  0.26533373  0.99845677  0.51678085    -0.75420
O1024       O  0.28639513  0.96845753  0.54186490    -0.54330
C1025       C  0.27119237  0.97469126  0.52281192     0.78310
O1026       O  0.35803902  0.08593042  0.51516055    -0.60020
O1027       O  0.33791399  0.11776592  0.53867909    -0.53050
C1028       C  0.35167018  0.10998363  0.51899866     0.70330
O1029       O  0.35849290  0.99745895  0.51564446    -0.74580
O1030       O  0.33758286  0.96721891  0.54096058    -0.55140
C1031       C  0.35152581  0.97385520  0.52124093     0.76330
O1032       O  0.26432563  0.08656067  0.51766669    -0.59720
O1033       O  0.28623703  0.11648227  0.54258502    -0.52840
C1034       C  0.27052696  0.11020625  0.52403865     0.72920
Zr1035     Zr  0.27403339  0.04241407  0.53356910     2.54710
O1036       O  0.26602084  0.04287007  0.48627254    -0.80290
O1037       O  0.22756801  0.04206091  0.54219635    -0.93700
Zr1038     Zr  0.35231311  0.04196490  0.53278385     2.64680
O1039       O  0.36088032  0.03843970  0.48567696    -0.98660
O1040       O  0.39913305  0.04287150  0.53922293    -0.80720
O1041       O  0.31304912  0.01783376  0.53222486    -0.84080
O1042       O  0.31320116  0.06648082  0.53225164    -2.18790
O1043       O  0.26396369  0.08590448  0.62520197    -0.67470
O1044       O  0.28620843  0.11631968  0.60157585    -0.52030
C1045       C  0.26997429  0.10965906  0.61967700     0.71300
O1046       O  0.35887965  0.99838492  0.62775499    -0.60370
O1047       O  0.34137638  0.96807215  0.59972794    -0.52350
C1048       C  0.35422418  0.97456968  0.62035424     0.73110
O1049       O  0.35925466  0.08831575  0.62790165    -0.71770
O1050       O  0.34124182  0.11831989  0.59996343    -0.50450
C1051       C  0.35390223  0.11205675  0.62079661     0.74490
O1052       O  0.26664389  0.99809210  0.62700240    -0.67100
O1053       O  0.28700352  0.96828052  0.60106124    -0.54300
C1054       C  0.27207778  0.97444577  0.62026787     0.72870
Zr1055     Zr  0.27583588  0.04216000  0.61131327     2.77540
O1056       O  0.27645931  0.04186928  0.65935561    -0.97850
O1057       O  0.22862901  0.04063722  0.61007948    -0.78670
Zr1058     Zr  0.35345520  0.04322096  0.61052784     2.70070
O1059       O  0.36503248  0.04339091  0.65708213    -0.79920
O1060       O  0.39988323  0.04328972  0.60179797    -0.99000
Zr1061     Zr  0.31365796  0.99322516  0.57164873     2.21500
Zr1062     Zr  0.31409251  0.09233362  0.57142103     2.11130
O1063       O  0.31429525  0.06750786  0.61123011    -2.47690
O1064       O  0.31476754  0.01781773  0.61141261    -0.79710
O1065       O  0.27442475  0.06819063  0.57247360    -0.71910
O1066       O  0.35367025  0.01679182  0.57180335    -2.32860
O1067       O  0.27387946  0.01665581  0.57236598    -2.29070
O1068       O  0.35402556  0.06863135  0.57127132    -0.73660
H1069       H  0.31236709  0.07700123  0.51649874     0.78330
H1070       H  0.36838235  0.00508286  0.57167625     0.79420
H1071       H  0.31370485  0.07858932  0.62664095     0.81650
H1072       H  0.25909373  0.00499328  0.57260804     0.79250
H1073       H  0.40472272  0.02460320  0.53598971     0.42290
H1074       H  0.40473605  0.06206408  0.60159379     0.41260
H1075       H  0.34815216  0.04351764  0.66638085     0.40940
H1076       H  0.28485920  0.05855356  0.66457196     0.38870
H1077       H  0.22357197  0.05603977  0.59941574     0.42000
H1078       H  0.22242626  0.02342252  0.54068639     0.36790
H1079       H  0.28350032  0.04450024  0.47835857     0.42900
H1080       H  0.35037400  0.05234038  0.47726020     0.39320
H1081       H  0.25806170  0.04389997  0.66454737     0.44240
H1082       H  0.21977662  0.05051442  0.52651522     0.42960
H1083       H  0.37912896  0.04412241  0.48355042     0.43100
H1084       H  0.40779558  0.03639891  0.61818061     0.43450
O1085       O  0.98304963  0.31973222  0.51477944    -0.75420
O1086       O  0.95215379  0.30285052  0.54195353    -0.54330
C1087       C  0.95955712  0.31335140  0.52014924     0.78310
O1088       O  0.07582534  0.24001869  0.52148554    -0.60020
O1089       O  0.10384703  0.26358728  0.54685294    -0.53050
C1090       C  0.09871560  0.24853371  0.52725146     0.70330
O1091       O  0.98972541  0.23754510  0.51852986    -0.74580
O1092       O  0.95665529  0.25249159  0.54409861    -0.55140
C1093       C  0.96550044  0.24089427  0.52343857     0.76330
O1094       O  0.06786750  0.33227982  0.51880682    -0.59720
O1095       O  0.10071458  0.31595467  0.54352855    -0.52840
C1096       C  0.09211193  0.32892745  0.52360732     0.72920
Zr1097     Zr  0.02506701  0.32222490  0.53595047     2.54710
O1098       O  0.02460073  0.33397857  0.48947221    -0.80290
O1099       O  0.01806625  0.36881182  0.54316785    -0.93700
Zr1100     Zr  0.03173175  0.24370880  0.53974106     2.64680
O1101       O  0.03079245  0.22486361  0.49566496    -0.98660
O1102       O  0.03337230  0.19806596  0.55342151    -0.80720
O1103       O  0.00440458  0.28090488  0.53719903    -0.84080
O1104       O  0.05238076  0.28505516  0.53635791    -2.18790
O1105       O  0.06906051  0.33864748  0.62820350    -0.67470
O1106       O  0.10040735  0.31965809  0.60318329    -0.52030
C1107       C  0.09309115  0.33423314  0.62230204     0.71300
O1108       O  0.98850434  0.23950337  0.63574960    -0.60370
O1109       O  0.95651873  0.25450849  0.60860502    -0.52350
C1110       C  0.96448773  0.24279994  0.62960248     0.73110
O1111       O  0.07522192  0.24373873  0.63401834    -0.71770
O1112       O  0.10328653  0.26636499  0.60779938    -0.50450
C1113       C  0.09809870  0.25188121  0.62784380     0.74490
O1114       O  0.98073507  0.32998418  0.62909577    -0.67100
O1115       O  0.95141617  0.30795685  0.60357327    -0.54300
C1116       C  0.95741878  0.32293439  0.62301942     0.72870
Zr1117     Zr  0.02517565  0.32634595  0.61278044     2.77540
O1118       O  0.02378385  0.33535431  0.65995812    -0.97850
O1119       O  0.02067925  0.37308308  0.60459003    -0.78670
Zr1120     Zr  0.03107067  0.24815122  0.61671010     2.70070
O1121       O  0.03246660  0.24394772  0.66449189    -0.79920
O1122       O  0.03304237  0.20067397  0.61292839    -0.99000
Zr1123     Zr  0.97826365  0.28102252  0.57558159     2.21500
Zr1124     Zr  0.07736058  0.28941560  0.57560567     2.11130
O1125       O  0.05239221  0.28923524  0.61514048    -2.47690
O1126       O  0.00361518  0.28528183  0.61469929    -0.79710
O1127       O  0.05093132  0.32764903  0.57409937    -0.71910
O1128       O  0.00525068  0.24290280  0.57807706    -2.32860
O1129       O  0.99897988  0.32300397  0.57422112    -2.29070
O1130       O  0.05750418  0.24720730  0.57831992    -0.73660
H1131       H  0.06271090  0.28529090  0.52053481     0.78330
H1132       H  0.99493876  0.22709592  0.57884644     0.79420
H1133       H  0.06310350  0.29088479  0.63067714     0.81650
H1134       H  0.98637712  0.33696947  0.57336522     0.79250
H1135       H  0.01731236  0.19023624  0.54606810     0.42290
H1136       H  0.05181953  0.19668971  0.61202790     0.41260
H1137       H  0.03171404  0.26221439  0.67103991     0.40940
H1138       H  0.03689981  0.32352733  0.66780211     0.38870
H1139       H  0.03838005  0.37897885  0.59984921     0.42000
H1140       H  0.00154323  0.37260054  0.53393927     0.36790
H1141       H  0.02824694  0.31735189  0.48011315     0.42900
H1142       H  0.03924512  0.23797006  0.48416050     0.39320
H1143       H  0.03121609  0.35314721  0.66196848     0.44240
H1144       H  0.03151399  0.37749406  0.53232349     0.42960
H1145       H  0.04274247  0.20971835  0.49623173     0.43100
H1146       H  0.02761117  0.19422701  0.63047845     0.43450
C1147       C  0.22439107  0.19298715  0.46342856     0.03000
C1148       C  0.20062758  0.20086188  0.47379624    -0.13150
C1149       C  0.18786540  0.22284217  0.46406520     0.00500
C1150       C  0.19792632  0.23606691  0.44214852    -0.11670
C1151       C  0.22155115  0.22785962  0.43097707     0.03000
C1152       C  0.23484023  0.20633617  0.44179727    -0.11090
H1153       H  0.19259258  0.19054858  0.49061360     0.08590
H1154       H  0.18809764  0.25324064  0.43457443     0.06120
H1155       H  0.25344387  0.20044817  0.43383231     0.05970
C1156       C  0.20081821  0.37356230  0.73081060     0.03000
C1157       C  0.19283207  0.39863100  0.73927190    -0.13150
C1158       C  0.17441326  0.41268927  0.72452903     0.00500
C1159       C  0.16442141  0.40189354  0.70141832    -0.11670
C1160       C  0.16976613  0.37604992  0.69453597     0.03000
C1161       C  0.18867754  0.36203694  0.70866204    -0.11090
H1162       H  0.20010784  0.40664899  0.75765945     0.08590
H1163       H  0.14931282  0.41232785  0.69080937     0.06120
H1164       H  0.19279514  0.34186826  0.70348917     0.05970
C1165       C  0.18931163  0.22356056  0.68661118     0.03000
C1166       C  0.20354479  0.23732432  0.70581511    -0.13150
C1167       C  0.22895964  0.22956349  0.71222482     0.00500
C1168       C  0.23950994  0.20719999  0.70035137    -0.11670
C1169       C  0.22528713  0.19335370  0.68136946     0.03000
C1170       C  0.20021013  0.20136989  0.67481249    -0.11090
H1171       H  0.19526437  0.25445963  0.71515356     0.08590
H1172       H  0.25890752  0.20079610  0.70549277     0.06120
H1173       H  0.18969456  0.19111705  0.65937042     0.05970
C1174       C  0.69847919  0.21213720  0.23007101     0.03000
C1175       C  0.68995270  0.18729694  0.23857309    -0.13150
C1176       C  0.67158067  0.17321375  0.22361029     0.00500
C1177       C  0.66186427  0.18408488  0.20039032    -0.11670
C1178       C  0.66845922  0.20955480  0.19295871     0.03000
C1179       C  0.68739236  0.22335094  0.20733015    -0.11090
H1180       H  0.69690803  0.17938483  0.25709760     0.08590
H1181       H  0.64646897  0.17397454  0.18982459     0.06120
H1182       H  0.69229272  0.24325844  0.20184138     0.05970
C1183       C  0.19790030  0.66686872  0.21960423     0.03000
C1184       C  0.21530120  0.68426505  0.23200685    -0.13150
C1185       C  0.20908202  0.69549218  0.25661532     0.00500
C1186       C  0.18573653  0.68846971  0.26921190    -0.11670
C1187       C  0.16824741  0.67136205  0.25671605     0.03000
C1188       C  0.17389292  0.66192134  0.23148247    -0.11090
H1189       H  0.23411805  0.68807565  0.22331185     0.08590
H1190       H  0.18177782  0.69536987  0.28901736     0.06120
H1191       H  0.16052324  0.64823100  0.22226735     0.05970
C1192       C  0.34829523  0.41171643  0.19966702     0.03000
C1193       C  0.37060513  0.40156894  0.18763190    -0.13150
C1194       C  0.37941291  0.37625628  0.19332819     0.00500
C1195       C  0.36573522  0.36088636  0.21156504    -0.11670
C1196       C  0.34296591  0.37038275  0.22327355     0.03000
C1197       C  0.33449318  0.39591087  0.21757117    -0.11090
H1198       H  0.38034508  0.41281132  0.17247035     0.08590
H1199       H  0.37235863  0.34126763  0.21610985     0.06120
H1200       H  0.31689912  0.40321348  0.22663222     0.05970
C1201       C  0.36874890  0.17620716  0.42699864     0.03000
C1202       C  0.39185570  0.17126440  0.41316947    -0.13150
C1203       C  0.39310540  0.17448026  0.38593411     0.00500
C1204       C  0.37391197  0.18899898  0.37316384    -0.11670
C1205       C  0.35240180  0.19816641  0.38739015     0.03000
C1206       C  0.34896043  0.19037532  0.41391875    -0.11090
H1207       H  0.40770617  0.16108469  0.42279411     0.08590
H1208       H  0.37521991  0.19243017  0.35211879     0.06120
H1209       H  0.33087473  0.19476011  0.42379071     0.05970
C1210       C  0.16159878  0.36686951  0.44151307     0.03000
C1211       C  0.15564095  0.39229477  0.43288543    -0.13150
C1212       C  0.16091342  0.39997226  0.40710742     0.00500
C1213       C  0.17681668  0.38446367  0.39127993    -0.11670
C1214       C  0.18589864  0.36034336  0.40069088     0.03000
C1215       C  0.17745942  0.35100021  0.42543537    -0.11090
H1216       H  0.14305969  0.40459942  0.44472936     0.08590
H1217       H  0.18090854  0.39042086  0.37119969     0.06120
H1218       H  0.18199428  0.33113448  0.43130516     0.05970
C1219       C  0.28556794  0.30358180  0.29463842     0.02160
C1220       C  0.26365789  0.31470790  0.30701813     0.02160
C1221       C  0.25460788  0.30409542  0.33103355     0.02160
C1222       C  0.26605734  0.28111092  0.34133606     0.02160
C1223       C  0.28741494  0.26948209  0.32842825     0.02160
C1224       C  0.29604725  0.27983874  0.30415745     0.02160
C1225       C  0.22954544  0.34503265  0.38781402    -0.26440
C1226       C  0.20273611  0.34450442  0.38344554    -0.14520
C1227       C  0.19267284  0.33146138  0.36108609     0.36110
C1228       C  0.20978305  0.31883831  0.34358771    -0.25890
C1229       C  0.23663639  0.31928459  0.34808921    -0.15130
C1230       C  0.24653648  0.33270125  0.37023527     0.37200
N1231       N  0.27396943  0.33398846  0.37472759    -0.89380
H1232       H  0.23735139  0.35558194  0.40462480     0.18310
H1233       H  0.20218028  0.30836608  0.32669543     0.18300
N1234       N  0.16518716  0.33133761  0.35621706    -0.88410
H1235       H  0.27779182  0.32623881  0.39339957     0.35680
H1236       H  0.27944540  0.35371454  0.37493065     0.40780
H1237       H  0.15637422  0.32107897  0.37162713     0.40400
H1238       H  0.16094967  0.32105734  0.33888254     0.35290
C1239       C  0.31308984  0.20623363  0.35949366    -0.26440
C1240       C  0.33414828  0.21614906  0.37405293    -0.14520
C1241       C  0.33985611  0.24309134  0.37310872     0.36110
C1242       C  0.32450071  0.25964874  0.35754226    -0.25890
C1243       C  0.30353649  0.24989644  0.34276781    -0.15130
C1244       C  0.29762978  0.22281368  0.34385157     0.37200
N1245       N  0.27666654  0.21143281  0.32902394    -0.89380
H1246       H  0.30904561  0.18540067  0.35978983     0.18310
H1247       H  0.32875974  0.28044659  0.35699232     0.18300
N1248       N  0.36164260  0.25338823  0.38756823    -0.88410
H1249       H  0.26281827  0.20480142  0.34250527     0.35680
H1250       H  0.26760542  0.22530005  0.31707927     0.40780
H1251       H  0.35778267  0.25088713  0.40763948     0.40400
H1252       H  0.36348519  0.27354605  0.38445135     0.35290
C1253       C  0.29077686  0.32495947  0.25025144    -0.26440
C1254       C  0.30076051  0.31941059  0.27538577    -0.14520
C1255       C  0.32468235  0.33056355  0.28322241     0.36110
C1256       C  0.33816499  0.34698103  0.26577534    -0.25890
C1257       C  0.32784065  0.35318007  0.24101344    -0.15130
C1258       C  0.30391683  0.34210073  0.23308729     0.37200
N1259       N  0.29337806  0.34784716  0.20748018    -0.89380
H1260       H  0.27251229  0.31625995  0.24424263     0.18310
H1261       H  0.35661613  0.35540223  0.27166096     0.18300
N1262       N  0.33499563  0.32539889  0.30907222    -0.88410
H1263       H  0.28830117  0.36765348  0.20725439     0.35680
H1264       H  0.27617242  0.33738170  0.20438825     0.40780
H1265       H  0.32224761  0.33351123  0.32285251     0.40400
H1266       H  0.35283213  0.33485766  0.31168579     0.35290
C1267       C  0.21912606  0.24341458  0.38476135    -0.26440
C1268       C  0.23284958  0.24235340  0.40860491    -0.14520
C1269       C  0.25724236  0.25476122  0.41077330     0.36110
C1270       C  0.26760550  0.26774716  0.38880229    -0.25890
C1271       C  0.25427126  0.26809398  0.36467615    -0.15130
C1272       C  0.22973946  0.25590451  0.36262893     0.37200
N1273       N  0.21574492  0.25627967  0.33806938    -0.89380
H1274       H  0.20035358  0.23390863  0.38328371     0.18310
H1275       H  0.28613429  0.27762406  0.39047625     0.18300
N1276       N  0.27126415  0.25421223  0.43530313    -0.88410
H1277       H  0.19789730  0.24669842  0.33996166     0.35680
H1278       H  0.22646646  0.24569547  0.32423796     0.40780
H1279       H  0.26035767  0.26455829  0.44919952     0.40400
H1280       H  0.28899236  0.26404545  0.43350848     0.35290
C1281       C  0.10638757  0.35310479  0.66533326    -0.26440
C1282       C  0.11364120  0.34513408  0.63990118    -0.14520
C1283       C  0.14040042  0.34601252  0.63286254     0.36110
C1284       C  0.15883465  0.35514815  0.65132861    -0.25890
C1285       C  0.15119560  0.36310144  0.67651644    -0.15130
C1286       C  0.12479357  0.36186340  0.68355928     0.37200
N1287       N  0.11659100  0.36975121  0.70937163    -0.89380
H1288       H  0.08626658  0.35221390  0.67144261     0.18310
H1289       H  0.17912028  0.35657951  0.64591437     0.18300
N1290       N  0.14883512  0.33842304  0.60694141    -0.88410
H1291       H  0.10320546  0.38498698  0.70730603     0.35680
H1292       H  0.10712294  0.35391433  0.71819940     0.40780
H1293       H  0.14799513  0.31799732  0.60591578     0.40400
H1294       H  0.16836483  0.34328533  0.60419279     0.35290
C1295       C  0.11875675  0.36135697  0.46198656    -0.26440
C1296       C  0.14543683  0.35601377  0.46337724    -0.14520
C1297       C  0.15494559  0.34181689  0.48538900     0.36110
C1298       C  0.13737826  0.33334388  0.50495669    -0.25890
C1299       C  0.11073643  0.33969593  0.50379295    -0.15130
C1300       C  0.10171314  0.35478092  0.48219738     0.37200
N1301       N  0.07526824  0.36372814  0.48067068    -0.89380
H1302       H  0.11102729  0.37159818  0.44502705     0.18310
H1303       H  0.14475069  0.32192030  0.52131819     0.18300
N1304       N  0.18204650  0.33640546  0.48917684    -0.88410
H1305       H  0.07171724  0.37374773  0.46306379     0.35680
H1306       H  0.07259457  0.37733931  0.49585123     0.40780
H1307       H  0.19352104  0.34558548  0.47502016     0.40400
H1308       H  0.18465148  0.31619601  0.48715587     0.35290
C1309       C  0.14299404  0.21611953  0.67545959    -0.26440
C1310       C  0.16432577  0.23329535  0.67613842    -0.14520
C1311       C  0.16291389  0.25725195  0.66231073     0.36110
C1312       C  0.14088914  0.26294357  0.64736718    -0.25890
C1313       C  0.12008538  0.24519103  0.64544950    -0.15130
C1314       C  0.12088831  0.22172586  0.66017192     0.37200
N1315       N  0.09988656  0.20319374  0.65871164    -0.89380
H1316       H  0.14421897  0.19760748  0.68581963     0.18310
H1317       H  0.14029966  0.28130051  0.63670710     0.18300
N1318       N  0.18406774  0.27551331  0.66173469    -0.88410
H1319       H  0.10349906  0.18711282  0.67091397     0.35680
H1320       H  0.09920063  0.19599482  0.63940844     0.40780
H1321       H  0.20071623  0.26587788  0.65511227     0.40400
H1322       H  0.18731642  0.28258338  0.68078480     0.35290
C1323       C  0.14595072  0.24271516  0.52122964    -0.26440
C1324       C  0.12097598  0.24170683  0.51006332    -0.14520
C1325       C  0.11853291  0.23692879  0.48255599     0.36110
C1326       C  0.14072832  0.23236241  0.46737765    -0.25890
C1327       C  0.16536161  0.23253410  0.47895988    -0.15130
C1328       C  0.16809929  0.23846712  0.50596982     0.37200
N1329       N  0.19347065  0.23968744  0.51782811    -0.89380
H1330       H  0.14829623  0.24681600  0.54207113     0.18310
H1331       H  0.13866683  0.22776159  0.44660484     0.18300
N1332       N  0.09400247  0.23678954  0.46932351    -0.88410
H1333       H  0.19215447  0.24406563  0.53792736     0.35680
H1334       H  0.20347847  0.25521696  0.50905126     0.40780
H1335       H  0.08466256  0.25459780  0.47292216     0.40400
H1336       H  0.08295893  0.22134579  0.47676731     0.35290
C1337       C  0.24265354  0.17591949  0.50475381    -0.26440
C1338       C  0.23878070  0.17247290  0.47760239    -0.14520
C1339       C  0.24591632  0.14874525  0.46549247     0.36110
C1340       C  0.25629810  0.12857853  0.48111402    -0.25890
C1341       C  0.25951886  0.13183559  0.50847698    -0.15130
C1342       C  0.25276726  0.15600625  0.52029632     0.37200
N1343       N  0.25480152  0.16064822  0.54812343    -0.89380
H1344       H  0.23707571  0.19416729  0.51412431     0.18310
H1345       H  0.26181805  0.11023688  0.47193934     0.18300
N1346       N  0.24201638  0.14502286  0.43766735    -0.88410
H1347       H  0.27433842  0.16064001  0.55364493     0.35680
H1348       H  0.24493422  0.14579030  0.55815148     0.40780
H1349       H  0.22203617  0.14551083  0.43406548     0.40400
H1350       H  0.24842731  0.12646847  0.43188248     0.35290
C1351       C  0.22662020  0.14681614  0.66797747    -0.26440
C1352       C  0.23728261  0.17193038  0.66636277    -0.14520
C1353       C  0.25817744  0.17683900  0.64927291     0.36110
C1354       C  0.26835112  0.15623222  0.63423871    -0.25890
C1355       C  0.25798771  0.13075315  0.63583897    -0.15130
C1356       C  0.23685826  0.12601493  0.65322370     0.37200
N1357       N  0.22564870  0.10033525  0.65588951    -0.87700
H1358       H  0.21036463  0.14341613  0.68107992     0.18310
H1359       H  0.28453669  0.16020037  0.62124225     0.18300
N1360       N  0.26868044  0.20285193  0.64697990    -0.88410
H1361       H  0.20869660  0.10105246  0.66716698     0.35680
H1362       H  0.23874684  0.08905460  0.66676831     0.40780
H1363       H  0.25418367  0.21482790  0.63907857     0.40400
H1364       H  0.28410134  0.20317276  0.63362008     0.35290
C1365       C  0.34832074  0.15445284  0.49708038    -0.26440
C1366       C  0.35886794  0.12894009  0.49771137    -0.14520
C1367       C  0.37363065  0.12044699  0.47582016     0.36110
C1368       C  0.37460567  0.13581047  0.45319868    -0.25890
C1369       C  0.36467339  0.16145113  0.45232002    -0.15130
C1370       C  0.35189071  0.17114616  0.47514010     0.37200
N1371       N  0.34308928  0.19772008  0.47731886    -0.89380
H1372       H  0.33730188  0.16160014  0.51377028     0.18310
H1373       H  0.38360563  0.12734301  0.43592382     0.18300
N1374       N  0.38751810  0.09601475  0.47625631    -0.88410
H1375       H  0.32286644  0.19762743  0.47558933     0.35680
H1376       H  0.35070424  0.20949358  0.46242855     0.40780
H1377       H  0.40208495  0.09766532  0.49055481     0.40400
H1378       H  0.39693045  0.09248703  0.45835584     0.35290
C1379       C  0.28114348  0.27425565  0.74050502    -0.26440
C1380       C  0.27272900  0.27691937  0.76662086    -0.14520
C1381       C  0.24997565  0.26370531  0.77477048     0.36110
C1382       C  0.23599702  0.24846018  0.75660307    -0.25890
C1383       C  0.24471019  0.24540883  0.73069115    -0.15130
C1384       C  0.26764783  0.25837935  0.72260766     0.37200
N1385       N  0.27717727  0.25657551  0.69614900    -0.89380
H1386       H  0.29806431  0.28479743  0.73381178     0.18310
H1387       H  0.21839818  0.23856212  0.76275732     0.18300
N1388       N  0.24118112  0.26574468  0.80153726    -0.88410
H1389       H  0.28247484  0.23722604  0.69229492     0.35680
H1390       H  0.26232295  0.26195687  0.68318200     0.40780
H1391       H  0.25461672  0.25592604  0.81330542     0.40400
H1392       H  0.22349351  0.25598605  0.80397788     0.35290
C1393       C  0.21180322  0.34857116  0.77131308    -0.26440
C1394       C  0.21972578  0.35835011  0.74676982    -0.14520
C1395       C  0.24528932  0.35320390  0.73802088     0.36110
C1396       C  0.26240255  0.33946329  0.75451946    -0.25890
C1397       C  0.25472418  0.32999495  0.77935446    -0.15130
C1398       C  0.22865672  0.33403418  0.78743840     0.37200
N1399       N  0.21818099  0.32295482  0.81113796    -0.89380
H1400       H  0.19204796  0.35187070  0.77782452     0.18310
H1401       H  0.28216505  0.33634538  0.74793227     0.18300
N1402       N  0.25488433  0.36216444  0.71298919    -0.88410
H1403       H  0.21284854  0.33838588  0.82355217     0.35680
H1404       H  0.23190395  0.31171947  0.82106051     0.40780
H1405       H  0.24104011  0.37295133  0.70265486     0.40400
H1406       H  0.25899536  0.34561011  0.70158154     0.35290
C1407       C  0.36049053  0.26070593  0.74672601    -0.26440
C1408       C  0.36247152  0.23396099  0.75270287    -0.14520
C1409       C  0.34753057  0.22377728  0.77374536     0.36110
C1410       C  0.33023410  0.24009359  0.78747316    -0.25890
C1411       C  0.32824872  0.26685305  0.78151532    -0.15130
C1412       C  0.34402459  0.27725240  0.76131293     0.37200
N1413       N  0.34337767  0.30473395  0.75563644    -0.89380
H1414       H  0.37191906  0.26882468  0.73078111     0.18310
H1415       H  0.31833166  0.23177931  0.80288308     0.18300
N1416       N  0.34924017  0.19681974  0.78131120    -0.88410
H1417       H  0.33858955  0.30711349  0.73574335     0.35680
H1418       H  0.36207100  0.31224240  0.75843773     0.40780
H1419       H  0.36822965  0.19299040  0.78743701     0.40400
H1420       H  0.34510976  0.18518131  0.76484865     0.35290
C1421       C  0.34794550  0.13532316  0.66307815    -0.26440
C1422       C  0.36081528  0.13371245  0.63881913    -0.14520
C1423       C  0.37823232  0.15371852  0.63147921     0.36110
C1424       C  0.38400930  0.17392362  0.64957055    -0.25890
C1425       C  0.37203573  0.17484520  0.67444623    -0.15130
C1426       C  0.35322248  0.15575651  0.68091384     0.37200
N1427       N  0.34025662  0.15663538  0.70599700    -0.89380
H1428       H  0.33382663  0.12041121  0.66818462     0.18310
H1429       H  0.39876165  0.18830209  0.64480842     0.18300
N1430       N  0.39044543  0.15302009  0.60604006    -0.88410
H1431       H  0.32671819  0.14143378  0.70748358     0.35680
H1432       H  0.35408780  0.15338087  0.72072178     0.40780
H1433       H  0.40222237  0.13637837  0.60538494     0.40400
H1434       H  0.40269237  0.16919590  0.60367411     0.35290
C1435       C  0.93004562  0.20470321  0.68401394    -0.26440
C1436       C  0.90646095  0.21827894  0.68569529    -0.14520
C1437       C  0.90180493  0.23955263  0.66857094     0.36110
C1438       C  0.92094620  0.24697327  0.65035498    -0.25890
C1439       C  0.94461524  0.23346270  0.64861146    -0.15130
C1440       C  0.94916185  0.21215131  0.66577235     0.37200
N1441       N  0.97287132  0.19760776  0.66437047    -0.89380
H1442       H  0.93352880  0.18805567  0.69677245     0.18310
H1443       H  0.91736288  0.26352608  0.63751025     0.18300
N1444       N  0.87740102  0.25316674  0.66931950    -0.88410
H1445       H  0.96826385  0.17804614  0.66036901     0.35680
H1446       H  0.98183678  0.19841570  0.68287066     0.40780
H1447       H  0.86293319  0.23996374  0.66350814     0.40400
H1448       H  0.87715897  0.26845660  0.65563005     0.35290
C1449       C  0.92525882  0.24836139  0.49737854    -0.26440
C1450       C  0.94682310  0.23239701  0.50286508    -0.14520
C1451       C  0.95102972  0.20985491  0.48712205     0.36110
C1452       C  0.93410648  0.20415622  0.46637642    -0.25890
C1453       C  0.91258919  0.22007231  0.46093922    -0.15130
C1454       C  0.90825659  0.24247784  0.47651457     0.37200
N1455       N  0.88601124  0.25864154  0.47195487    -0.89380
H1456       H  0.92167398  0.26566970  0.50918094     0.18310
H1457       H  0.93712633  0.18639979  0.45503949     0.18300
N1458       N  0.97130051  0.19147006  0.49256711    -0.88410
H1459       H  0.89249646  0.27770229  0.46828175     0.35680
H1460       H  0.87494902  0.25898623  0.48920812     0.40780
H1461       H  0.97029905  0.18603099  0.51240770     0.40400
H1462       H  0.98918093  0.20022695  0.48881895     0.35290
C1463       C  0.83622413  0.10876274  0.68285981    -0.26440
C1464       C  0.81734450  0.11571700  0.66418319    -0.14520
C1465       C  0.80727613  0.14135566  0.66387685     0.36110
C1466       C  0.81727776  0.16000540  0.68144564    -0.25890
C1467       C  0.83772500  0.15372992  0.69854856    -0.15130
C1468       C  0.84678667  0.12775165  0.69997133     0.37200
N1469       N  0.86729326  0.12112943  0.71799090    -0.89380
H1470       H  0.84372286  0.08894474  0.68304048     0.18310
H1471       H  0.81047360  0.18006089  0.68040992     0.18300
N1472       N  0.78735889  0.14849113  0.64532198    -0.88410
H1473       H  0.87183910  0.10123253  0.71646534     0.35680
H1474       H  0.86028400  0.12408866  0.73709615     0.40780
H1475       H  0.79545608  0.14802888  0.62645658     0.40400
H1476       H  0.78132724  0.16778162  0.64850410     0.35290
C1477       C  0.84120732  0.10841816  0.46279302    -0.26440
C1478       C  0.83247034  0.11534124  0.48813642    -0.14520
C1479       C  0.82882076  0.14205148  0.49430802     0.36110
C1480       C  0.83529754  0.16118363  0.47593140    -0.25890
C1481       C  0.84585320  0.15445482  0.45148044    -0.15130
C1482       C  0.84836705  0.12788453  0.44443985     0.37200
N1483       N  0.85861361  0.12086643  0.41907951    -0.89380
H1484       H  0.84320890  0.08791698  0.45765712     0.18310
H1485       H  0.83353112  0.18164829  0.48142548     0.18300
N1486       N  0.81843493  0.14996659  0.51926560    -0.88410
H1487       H  0.85892169  0.10050076  0.41690046     0.35680
H1488       H  0.87791297  0.12717624  0.41839171     0.40780
H1489       H  0.80155548  0.16078102  0.51582742     0.40400
H1490       H  0.83196482  0.16227270  0.52845362     0.35290
C1491       C  0.68763077  0.15121601  0.66095984    -0.26440
C1492       C  0.70210419  0.15825953  0.68336524    -0.14520
C1493       C  0.72560356  0.14492242  0.68869954     0.36110
C1494       C  0.73395681  0.12515374  0.67170411    -0.25890
C1495       C  0.71935780  0.11786167  0.64949954    -0.15130
C1496       C  0.69545669  0.13071633  0.64438826     0.37200
N1497       N  0.67804118  0.12282905  0.62356711    -0.89380
H1498       H  0.66913627  0.16064284  0.65726988     0.18310
H1499       H  0.75222254  0.11547541  0.67585929     0.18300
N1500       N  0.74086006  0.15005665  0.71180414    -0.88410
H1501       H  0.66009511  0.11858851  0.63218271     0.35680
H1502       H  0.68377430  0.10522296  0.61496664     0.40780
H1503       H  0.72914447  0.14798682  0.72847915     0.40400
H1504       H  0.74803337  0.16916433  0.71092238     0.35290
C1505       C  0.81673775  0.25396104  0.78878919    -0.26440
C1506       C  0.79943715  0.26991575  0.77462324    -0.14520
C1507       C  0.80040204  0.27015178  0.74696798     0.36110
C1508       C  0.81791921  0.25367447  0.73382390    -0.25890
C1509       C  0.83420548  0.23672645  0.74797660    -0.15130
C1510       C  0.83375865  0.23688370  0.77570084     0.37200
N1511       N  0.84994107  0.21916746  0.79032770    -0.89380
H1512       H  0.81619197  0.25416836  0.81015809     0.18310
H1513       H  0.81830043  0.25352657  0.71245607     0.18300
N1514       N  0.78350014  0.28681567  0.73221918    -0.88410
H1515       H  0.84688275  0.22141759  0.81058203     0.35680
H1516       H  0.86924974  0.22436760  0.78676989     0.40780
H1517       H  0.79500586  0.29899169  0.72047796     0.40400
H1518       H  0.77229878  0.27503975  0.71971560     0.35290
C1519       C  0.71938434  0.26678286  0.77367648    -0.26440
C1520       C  0.74244058  0.25693652  0.78475378    -0.14520
C1521       C  0.74865435  0.23033587  0.78116101     0.36110
C1522       C  0.73231810  0.21438852  0.76584035    -0.25890
C1523       C  0.70929396  0.22426887  0.75491546    -0.15130
C1524       C  0.70260466  0.25066548  0.75921622     0.37200
N1525       N  0.67908669  0.26159319  0.74895207    -0.89380
H1526       H  0.71426179  0.28716671  0.77659498     0.18310
H1527       H  0.73731462  0.19396649  0.76295685     0.18300
N1528       N  0.77089179  0.21915138  0.79369040    -0.88410
H1529       H  0.66340939  0.25129403  0.75690316     0.35680
H1530       H  0.67894432  0.25899201  0.72850303     0.40780
H1531       H  0.78238076  0.21059787  0.77905433     0.40400
H1532       H  0.76450945  0.20419152  0.80615753     0.35290
C1533       C  0.89406546  0.35137579  0.64912590    -0.26440
C1534       C  0.90045791  0.35430833  0.67584636    -0.14520
C1535       C  0.92461014  0.34503493  0.68528541     0.36110
C1536       C  0.94221748  0.33424412  0.66756426    -0.25890
C1537       C  0.93651153  0.33223765  0.64060073    -0.15130
C1538       C  0.91179775  0.34006358  0.63132082     0.37200
N1539       N  0.90533102  0.33791039  0.60381886    -0.89380
H1540       H  0.87561593  0.35873980  0.64204199     0.18310
H1541       H  0.96085175  0.32768720  0.67499412     0.18300
N1542       N  0.93228318  0.34681343  0.71255482    -0.88410
H1543       H  0.88716791  0.34624717  0.60010818     0.35680
H1544       H  0.90341743  0.31798573  0.59944867     0.40780
H1545       H  0.91752273  0.35394761  0.72459853     0.40400
H1546       H  0.94768086  0.36013138  0.71379786     0.35290
C1547       C  0.81332489  0.35731468  0.74641073    -0.26440
C1548       C  0.84013031  0.35771282  0.75078771    -0.14520
C1549       C  0.85087161  0.34308467  0.77173922     0.36110
C1550       C  0.83448722  0.32758053  0.78753574    -0.25890
C1551       C  0.80773908  0.32671389  0.78263419    -0.15130
C1552       C  0.79704089  0.34217804  0.76238101     0.37200
N1553       N  0.76951657  0.34272430  0.75828147    -0.89380
H1554       H  0.80505177  0.36865501  0.73042845     0.18310
H1555       H  0.84248219  0.31612620  0.80356915     0.18300
N1556       N  0.87831607  0.34403650  0.77676472    -0.88410
H1557       H  0.76571911  0.33723081  0.73878993     0.35680
H1558       H  0.76324158  0.36203902  0.76069715     0.40780
H1559       H  0.88766993  0.33554944  0.76061297     0.40400
H1560       H  0.88300738  0.33259192  0.79316869     0.35290
C1561       C  0.71883621  0.36162282  0.86951155    -0.26440
C1562       C  0.71864122  0.35211362  0.89536495    -0.14520
C1563       C  0.73067415  0.32805779  0.90121219     0.36110
C1564       C  0.74349077  0.31424141  0.88117035    -0.25890
C1565       C  0.74400780  0.32404808  0.85536996    -0.15130
C1566       C  0.73114251  0.34763759  0.84943953     0.37200
N1567       N  0.73009589  0.35709823  0.82287486    -0.89380
H1568       H  0.70936667  0.38000478  0.86491079     0.18310
H1569       H  0.75320710  0.29599911  0.88575259     0.18300
N1570       N  0.73048393  0.31803827  0.92756301    -0.88410
H1571       H  0.73770248  0.37608918  0.82264470     0.35680
H1572       H  0.71059420  0.35823245  0.81726789     0.40780
H1573       H  0.74972642  0.31575132  0.93371072     0.40400
H1574       H  0.72179050  0.29951662  0.92714502     0.35290
C1575       C  0.61184539  0.16870635  0.75577289    -0.26440
C1576       C  0.63727100  0.15963967  0.75224925    -0.14520
C1577       C  0.64367741  0.13389587  0.75948737     0.36110
C1578       C  0.62443207  0.11707079  0.76861919    -0.25890
C1579       C  0.59861811  0.12541037  0.77111490    -0.15130
C1580       C  0.59234649  0.15185978  0.76553873     0.37200
N1581       N  0.56624125  0.16122196  0.76867852    -0.89380
H1582       H  0.60710022  0.18860978  0.75019574     0.18310
H1583       H  0.62983985  0.09720632  0.77374722     0.18300
N1584       N  0.66981995  0.12463965  0.75703673    -0.88410
H1585       H  0.56467125  0.18046963  0.76185235     0.35680
H1586       H  0.56240923  0.16203921  0.78889388     0.40780
H1587       H  0.67606456  0.11832265  0.77559094     0.40400
H1588       H  0.66975879  0.10848875  0.74433061     0.35290
C1589       C  0.44324588  0.12239498  0.75516123    -0.26440
C1590       C  0.46743972  0.12971396  0.76563220    -0.14520
C1591       C  0.47445342  0.15670876  0.76550699     0.36110
C1592       C  0.45720077  0.17531665  0.75460420    -0.25890
C1593       C  0.43319283  0.16755556  0.74415661    -0.15130
C1594       C  0.42619418  0.14087125  0.74475501     0.37200
N1595       N  0.40143283  0.13242441  0.73496194    -0.89380
H1596       H  0.43708009  0.10209647  0.75538648     0.18310
H1597       H  0.46255206  0.19584119  0.75403958     0.18300
N1598       N  0.49908361  0.16519889  0.77582773    -0.88410
H1599       H  0.39154932  0.12304616  0.75026427     0.35680
H1600       H  0.40454958  0.11875840  0.71992352     0.40780
H1601       H  0.49822395  0.16361094  0.79634854     0.40400
H1602       H  0.50206149  0.18507952  0.77191440     0.35290
C1603       C  0.73677425  0.24771699  0.85134069    -0.26440
C1604       C  0.72817835  0.27072946  0.83910044    -0.14520
C1605       C  0.70237717  0.27893752  0.84290470     0.36110
C1606       C  0.68603079  0.26471682  0.85987825    -0.25890
C1607       C  0.69489544  0.24204228  0.87266780    -0.15130
C1608       C  0.72053453  0.23319481  0.86792679     0.37200
N1609       N  0.73107166  0.21007692  0.88007088    -0.89380
H1610       H  0.75660151  0.24126888  0.84842790     0.18310
H1611       H  0.66624338  0.27122246  0.86285415     0.18300
N1612       N  0.69266186  0.30146031  0.82936595    -0.88410
H1613       H  0.73468608  0.19646759  0.86509904     0.35680
H1614       H  0.71807012  0.20133407  0.89311477     0.40780
H1615       H  0.68569639  0.31463017  0.84346950     0.40400
H1616       H  0.67694594  0.29550667  0.81772910     0.35290
C1617       C  0.60649943  0.17289725  0.88781771    -0.26440
C1618       C  0.63321767  0.16757928  0.88615681    -0.14520
C1619       C  0.64148603  0.14267693  0.87749659     0.36110
C1620       C  0.62273816  0.12368808  0.87119294    -0.25890
C1621       C  0.59598217  0.12887589  0.87337519    -0.15130
C1622       C  0.58777434  0.15385582  0.88206763     0.37200
N1623       N  0.56092014  0.16045602  0.88618510    -0.89380
H1624       H  0.60009110  0.19193640  0.89470749     0.18310
H1625       H  0.62917102  0.10467020  0.86428880     0.18300
N1626       N  0.66843277  0.13567959  0.87555847    -0.88410
H1627       H  0.55886323  0.16593375  0.90594987     0.35680
H1628       H  0.54875808  0.14429888  0.88375794     0.40780
H1629       H  0.68056849  0.15105909  0.88127212     0.40400
H1630       H  0.67237773  0.13192338  0.85569556     0.35290
C1631       C  0.34340961  0.24079486  0.86673374    -0.26440
C1632       C  0.36926493  0.24809819  0.87049327    -0.14520
C1633       C  0.37892491  0.27091004  0.85821238     0.36110
C1634       C  0.36245696  0.28571670  0.84175782    -0.25890
C1635       C  0.33636756  0.27858088  0.83826778    -0.15130
C1636       C  0.32662255  0.25607666  0.85149633     0.37200
N1637       N  0.29969925  0.24856150  0.85065178    -0.89380
H1638       H  0.33592271  0.22353413  0.87657349     0.18310
H1639       H  0.36979618  0.30305501  0.83196969     0.18300
N1640       N  0.40542657  0.27875226  0.86234584    -0.88410
H1641       H  0.29277490  0.24859893  0.87001692     0.35680
H1642       H  0.28853281  0.26238106  0.84076150     0.40780
H1643       H  0.40750269  0.28373346  0.88224462     0.40400
H1644       H  0.40958144  0.29570352  0.85159745     0.35290
C1645       C  0.42740269  0.14830683  0.89776068    -0.26440
C1646       C  0.42972228  0.17250762  0.88485687    -0.14520
C1647       C  0.44838412  0.17532734  0.86472418     0.36110
C1648       C  0.46408617  0.15409684  0.85790412    -0.25890
C1649       C  0.46205263  0.12976161  0.87083643    -0.15130
C1650       C  0.44337040  0.12692904  0.89111204     0.37200
N1651       N  0.44093992  0.10268754  0.90528593    -0.89380
H1652       H  0.41340716  0.14630779  0.91355992     0.18310
H1653       H  0.47811279  0.15684171  0.84226824     0.18300
N1654       N  0.45268647  0.19980003  0.85161846    -0.88410
H1655       H  0.42597413  0.10378955  0.91913388     0.35680
H1656       H  0.45810233  0.09997732  0.91597066     0.40780
H1657       H  0.45658845  0.21416702  0.86580323     0.40400
H1658       H  0.43593550  0.20494924  0.84126167     0.35290
C1659       C  0.33893213  0.25951257  0.29250931    -0.26440
C1660       C  0.31274002  0.26387905  0.28642988    -0.14520
C1661       C  0.30206156  0.25291429  0.26320312     0.36110
C1662       C  0.31784389  0.23792916  0.24643830    -0.25890
C1663       C  0.34384930  0.23317799  0.25279739    -0.15130
C1664       C  0.35457438  0.24405161  0.27599368     0.37200
N1665       N  0.38137755  0.23956605  0.28246055    -0.89380
H1666       H  0.34728276  0.26844134  0.30992750     0.18310
H1667       H  0.30982788  0.22971540  0.22845734     0.18300
N1668       N  0.27520330  0.25716696  0.25674604    -0.88410
H1669       H  0.38617169  0.24866611  0.30030655     0.35680
H1670       H  0.39264944  0.24852500  0.26790886     0.40780
H1671       H  0.26399724  0.24814232  0.27130735     0.40400
H1672       H  0.27044330  0.24803338  0.23891084     0.35290
C1673       C  0.61519493  0.22159654  0.95954912    -0.26440
C1674       C  0.64074854  0.23040611  0.95566535    -0.14520
C1675       C  0.65158381  0.24779083  0.97454131     0.36110
C1676       C  0.63624221  0.25624844  0.99619030    -0.25890
C1677       C  0.61069266  0.24693659  0.99979095    -0.15130
C1678       C  0.60087878  0.22832564  0.98165261     0.37200
N1679       N  0.57613554  0.21593843  0.98536000    -0.89380
H1680       H  0.60571820  0.20910550  0.94517410     0.18310
H1681       H  0.64412558  0.27034331  0.01001076     0.18300
N1682       N  0.67784956  0.25681351  0.97177573    -0.88410
H1683       H  0.57903630  0.19569808  0.98637866     0.35680
H1684       H  0.56460782  0.21979017  0.96882514     0.40780
H1685       H  0.68999670  0.24052623  0.97351775     0.40400
H1686       H  0.68273261  0.26955268  0.98717765     0.35290
C1687       C  0.43163501  0.22972724  0.00157283    -0.26440
C1688       C  0.43872470  0.25622412  0.00280660    -0.14520
C1689       C  0.43108421  0.27316752  0.98214291     0.36110
C1690       C  0.41862232  0.26291114  0.95994156    -0.25890
C1691       C  0.41344286  0.23603938  0.95756970    -0.15130
C1692       C  0.41870194  0.21957674  0.97933345     0.37200
N1693       N  0.41147045  0.19247961  0.97871941    -0.89380
H1694       H  0.43733056  0.21659100  0.01731964     0.18310
H1695       H  0.41486150  0.27596768  0.94355681     0.18300
N1696       N  0.43748569  0.30050098  0.98185013    -0.88410
H1697       H  0.42823948  0.18127820  0.98139653     0.35680
H1698       H  0.39915664  0.18891514  0.99467881     0.40780
H1699       H  0.44748959  0.30589800  0.99881490     0.40400
H1700       H  0.42002201  0.31089612  0.98197223     0.35290
C1701       C  0.42087592  0.33399717  0.14837403    -0.26440
C1702       C  0.44331467  0.34950580  0.14582068    -0.14520
C1703       C  0.44517660  0.37310269  0.16040571     0.36110
C1704       C  0.42450675  0.38087426  0.17642448    -0.25890
C1705       C  0.40184505  0.36567664  0.17845004    -0.15130
C1706       C  0.40007204  0.34186843  0.16435383     0.37200
N1707       N  0.37686922  0.32621468  0.16555782    -0.89380
H1708       H  0.41939868  0.31573928  0.13752896     0.18310
H1709       H  0.42596882  0.39923848  0.18709084     0.18300
N1710       N  0.46723121  0.39013153  0.15861019    -0.88410
H1711       H  0.37884777  0.30920456  0.15423107     0.35680
H1712       H  0.36183595  0.33704392  0.15703819     0.40780
H1713       H  0.47024558  0.39486890  0.13880060     0.40400
H1714       H  0.48352638  0.38037315  0.16591177     0.35290
C1715       C  0.39725964  0.23268983  0.14994348    -0.26440
C1716       C  0.40351083  0.23230105  0.17688204    -0.14520
C1717       C  0.42743599  0.24302008  0.18555134     0.36110
C1718       C  0.44503166  0.25243560  0.16697477    -0.25890
C1719       C  0.43938744  0.25197751  0.13994899    -0.15130
C1720       C  0.41498008  0.24263084  0.13128543     0.37200
N1721       N  0.40871322  0.24231193  0.10365569    -0.89380
H1722       H  0.37902698  0.22425947  0.14341198     0.18310
H1723       H  0.46351050  0.26008407  0.17381039     0.18300
N1724       N  0.43503599  0.24381889  0.21289220    -0.88410
H1725       H  0.39002341  0.23485481  0.10065192     0.35680
H1726       H  0.42149671  0.22936532  0.09439358     0.40780
H1727       H  0.42064642  0.23659822  0.22534751     0.40400
H1728       H  0.43756722  0.26348863  0.21807621     0.35290
C1729       C  0.60698053  0.23581340  0.16294435    -0.26440
C1730       C  0.61451812  0.24125992  0.13692497    -0.14520
C1731       C  0.64087572  0.23788117  0.12969125     0.36110
C1732       C  0.65883854  0.22870639  0.14858170    -0.25890
C1733       C  0.65087533  0.22290412  0.17431687    -0.15130
C1734       C  0.62482343  0.22690212  0.18166761     0.37200
N1735       N  0.61655506  0.22141594  0.20818636    -0.89380
H1736       H  0.58706728  0.23897082  0.16896622     0.18310
H1737       H  0.67885316  0.22531053  0.14305606     0.18300
N1738       N  0.64924734  0.24341975  0.10326385    -0.88410
H1739       H  0.59671451  0.22505771  0.21038328     0.35680
H1740       H  0.62625216  0.23444124  0.22073945     0.40780
H1741       H  0.64000173  0.23006223  0.09071489     0.40400
H1742       H  0.66919003  0.24019927  0.10135331     0.35290
C1743       C  0.61174698  0.37005352  0.98760749    -0.26440
C1744       C  0.61821484  0.35126868  0.00686034    -0.14520
C1745       C  0.64346972  0.34018681  0.00652657     0.36110
C1746       C  0.66099612  0.34760161  0.98673781    -0.25890
C1747       C  0.65434605  0.36630519  0.96777449    -0.15130
C1748       C  0.62939987  0.37770462  0.96814774     0.37200
N1749       N  0.62126214  0.39699639  0.94920081    -0.89380
H1750       H  0.59262832  0.37885179  0.98737795     0.18310
H1751       H  0.68040316  0.33942501  0.98663294     0.18300
N1752       N  0.65145120  0.32155832  0.02615849    -0.88410
H1753       H  0.60548630  0.38918922  0.93881394     0.35680
H1754       H  0.63560314  0.40068698  0.93519254     0.40780
H1755       H  0.65287469  0.33157699  0.04410305     0.40400
H1756       H  0.67003515  0.31442411  0.02211181     0.35290
C1757       C  0.63503715  0.10899106  0.22797416    -0.26440
C1758       C  0.61586710  0.11588229  0.24633737    -0.14520
C1759       C  0.61816374  0.14015395  0.25997171     0.36110
C1760       C  0.63887837  0.15689342  0.25425601    -0.25890
C1761       C  0.65690455  0.15087896  0.23461675    -0.15130
C1762       C  0.65530460  0.12634106  0.22161614     0.37200
N1763       N  0.67338085  0.11877619  0.20144389    -0.89380
H1764       H  0.63383279  0.09027170  0.21792738     0.18310
H1765       H  0.63974171  0.17583677  0.26394552     0.18300
N1766       N  0.60008114  0.14882754  0.27965493    -0.88410
H1767       H  0.68278967  0.10182715  0.20791179     0.35680
H1768       H  0.68787672  0.13288702  0.19906146     0.40780
H1769       H  0.58511209  0.13552594  0.28240548     0.40400
H1770       H  0.59137577  0.16597853  0.27274470     0.35290
C1771       C  0.41498940  0.11507817  0.24934045    -0.26440
C1772       C  0.44134599  0.12157611  0.25306981    -0.14520
C1773       C  0.44921690  0.14801676  0.25040629     0.36110
C1774       C  0.43121132  0.16675141  0.24221485    -0.25890
C1775       C  0.40532565  0.16006579  0.23717608    -0.15130
C1776       C  0.39683448  0.13418263  0.24134155     0.37200
N1777       N  0.37009377  0.12737389  0.23701819    -0.89380
H1778       H  0.40870648  0.09499023  0.25195535     0.18310
H1779       H  0.43743033  0.18687677  0.23955712     0.18300
N1780       N  0.47540888  0.15591825  0.25631993    -0.88410
H1781       H  0.36700858  0.10754033  0.24108254     0.35680
H1782       H  0.36611039  0.12997844  0.21697186     0.40780
H1783       H  0.47842599  0.15298218  0.27649722     0.40400
H1784       H  0.47802108  0.17594393  0.25290981     0.35290
C1785       C  0.44894241  0.14823404  0.34479365    -0.26440
C1786       C  0.44541956  0.12105651  0.34813183    -0.14520
C1787       C  0.42392505  0.11193636  0.36272863     0.36110
C1788       C  0.40691641  0.12992723  0.37396566    -0.25890
C1789       C  0.41068829  0.15702302  0.37115366    -0.15130
C1790       C  0.43165329  0.16637508  0.35615884     0.37200
N1791       N  0.43552648  0.19406415  0.35297253    -0.89380
H1792       H  0.46534154  0.15528650  0.33347699     0.18310
H1793       H  0.39075267  0.12267552  0.38552298     0.18300
N1794       N  0.41948868  0.08463837  0.36756037    -0.88410
H1795       H  0.45183758  0.19767155  0.34128887     0.35680
H1796       H  0.43952837  0.20196477  0.37157772     0.40780
H1797       H  0.43611350  0.07665822  0.37623197     0.40400
H1798       H  0.41591444  0.07520905  0.34962180     0.35290
C1799       C  0.75017166  0.12581557  0.42953375    -0.26440
C1800       C  0.72735957  0.14055636  0.43007777    -0.14520
C1801       C  0.71151720  0.14015728  0.45267093     0.36110
C1802       C  0.71837331  0.12409669  0.47402510    -0.25890
C1803       C  0.74061084  0.10817230  0.47310049    -0.15130
C1804       C  0.75690213  0.10937723  0.45056582     0.37200
N1805       N  0.78021606  0.09403191  0.44889700    -0.89380
H1806       H  0.76210607  0.12607311  0.41195640     0.18310
H1807       H  0.70599633  0.12367962  0.49126294     0.18300
N1808       N  0.68835462  0.15578847  0.45359390    -0.88410
H1809       H  0.79116014  0.09945811  0.43243851     0.35680
H1810       H  0.77465477  0.07459878  0.44559341     0.40780
H1811       H  0.69400751  0.17544993  0.45279195     0.40400
H1812       H  0.67876694  0.15321617  0.47155669     0.35290
C1813       C  0.64100934  0.14592678  0.36840148    -0.26440
C1814       C  0.66505034  0.14134083  0.35649127    -0.14520
C1815       C  0.66712966  0.12284527  0.33605562     0.36110
C1816       C  0.64505943  0.10865277  0.32839175    -0.25890
C1817       C  0.62094352  0.11237041  0.34091045    -0.15130
C1818       C  0.61888275  0.13164053  0.36096492     0.37200
N1819       N  0.59469465  0.13624386  0.37427332    -0.89380
H1820       H  0.63980502  0.16000303  0.38437680     0.18310
H1821       H  0.64689488  0.09437368  0.31269035     0.18300
N1822       N  0.69190055  0.11753585  0.32418640    -0.88410
H1823       H  0.59645592  0.15169586  0.38772072     0.35680
H1824       H  0.59046256  0.11953566  0.38537042     0.40780
H1825       H  0.69742101  0.13418937  0.31362446     0.40400
H1826       H  0.69032344  0.10236613  0.31039802     0.35290
C1827       C  0.72919581  0.25542718  0.28281434    -0.26440
C1828       C  0.75512800  0.25651500  0.27433905    -0.14520
C1829       C  0.76245203  0.24211943  0.25154501     0.36110
C1830       C  0.74356868  0.22800516  0.23743826    -0.25890
C1831       C  0.71770827  0.22719750  0.24578352    -0.15130
C1832       C  0.71053794  0.24077311  0.26880956     0.37200
N1833       N  0.68429465  0.23972344  0.27795650    -0.89380
H1834       H  0.72349567  0.26577592  0.30054233     0.18310
H1835       H  0.74924117  0.21717667  0.21998140     0.18300
N1836       N  0.78892384  0.24024800  0.24279335    -0.88410
H1837       H  0.67722780  0.25888417  0.27888486     0.35680
H1838       H  0.68444807  0.23211879  0.29708898     0.40780
H1839       H  0.80157216  0.25124347  0.25449060     0.40400
H1840       H  0.78987512  0.24784584  0.22370266     0.35290
C1841       C  0.74500670  0.22478699  0.36415828    -0.26440
C1842       C  0.74290608  0.19972429  0.35316487    -0.14520
C1843       C  0.75519370  0.19403320  0.32900552     0.36110
C1844       C  0.76948498  0.21374896  0.31623898    -0.25890
C1845       C  0.77125811  0.23897497  0.32709919    -0.15130
C1846       C  0.75865876  0.24463811  0.35111925     0.37200
N1847       N  0.75949925  0.27069613  0.36191240    -0.89380
H1848       H  0.73527430  0.22903998  0.38259696     0.18310
H1849       H  0.77913652  0.20955037  0.29776115     0.18300
N1850       N  0.75306820  0.16831395  0.31763522    -0.88410
H1851       H  0.74939764  0.27156625  0.37974777     0.35680
H1852       H  0.74979112  0.28306115  0.34877942     0.40780
H1853       H  0.76224816  0.15521683  0.33043049     0.40400
H1854       H  0.76307930  0.16742252  0.29974473     0.35290
C1855       C  0.84452807  0.21871874  0.36279652    -0.26440
C1856       C  0.84617545  0.22946624  0.38818757    -0.14520
C1857       C  0.83518483  0.25427609  0.39319571     0.36110
C1858       C  0.82254053  0.26773834  0.37266667    -0.25890
C1859       C  0.82116839  0.25714439  0.34711530    -0.15130
C1860       C  0.83248148  0.23242401  0.34212854     0.37200
N1861       N  0.83157859  0.22129224  0.31607370    -0.89380
H1862       H  0.85297983  0.19965268  0.35905302     0.18310
H1863       H  0.81345931  0.28642550  0.37666841     0.18300
N1864       N  0.83655158  0.26547113  0.41918719    -0.88410
H1865       H  0.84050164  0.20292012  0.31577384     0.35680
H1866       H  0.84236344  0.23337070  0.30359249     0.40780
H1867       H  0.82581229  0.25345170  0.43179599     0.40400
H1868       H  0.82774344  0.28390245  0.41952761     0.35290
C1869       C  0.76001610  0.33882802  0.22440389    -0.26440
C1870       C  0.73593742  0.34708125  0.23425691    -0.14520
C1871       C  0.72702574  0.33722236  0.25850558     0.36110
C1872       C  0.74276011  0.31987607  0.27283065    -0.25890
C1873       C  0.76711186  0.31189284  0.26331555    -0.15130
C1874       C  0.77553500  0.32097051  0.23846963     0.37200
N1875       N  0.79986451  0.31239525  0.22779203    -0.89380
H1876       H  0.76658403  0.34621512  0.20553631     0.18310
H1877       H  0.73640343  0.31320002  0.29203497     0.18300
N1878       N  0.70230495  0.34532838  0.26872626    -0.88410
H1879       H  0.80342641  0.32134566  0.20962588     0.35680
H1880       H  0.79839154  0.29234358  0.22416458     0.40780
H1881       H  0.70341242  0.36542212  0.27258971     0.40400
H1882       H  0.69854400  0.33615182  0.28674008     0.35290
C1883       C  0.61753743  0.37034941  0.15530430    -0.26440
C1884       C  0.61991546  0.34648867  0.14165308    -0.14520
C1885       C  0.64240447  0.33110857  0.14561980     0.36110
C1886       C  0.66239929  0.34050798  0.16195506    -0.25890
C1887       C  0.66028019  0.36463511  0.17505102    -0.15130
C1888       C  0.63740816  0.37945661  0.17196469     0.37200
N1889       N  0.63412393  0.40359366  0.18599592    -0.89380
H1890       H  0.60021781  0.38213420  0.15293464     0.18310
H1891       H  0.67991399  0.32901284  0.16423255     0.18300
N1892       N  0.64462182  0.30569341  0.13364457    -0.88410
H1893       H  0.63099411  0.41846154  0.17220005     0.35680
H1894       H  0.61747192  0.40198753  0.19763022     0.40780
H1895       H  0.63033672  0.29388232  0.14212919     0.40400
H1896       H  0.66242971  0.29706457  0.13833494     0.35290
C1897       C  0.62214643  0.92431136  0.26371024    -0.26440
C1898       C  0.64321178  0.92645310  0.24652969    -0.14520
C1899       C  0.64826197  0.95076512  0.23405721     0.36110
C1900       C  0.63119927  0.97190472  0.23816489    -0.25890
C1901       C  0.60896615  0.96899811  0.25384552    -0.15130
C1902       C  0.60499519  0.94506552  0.26737858     0.37200
N1903       N  0.58375426  0.94116236  0.28512178    -0.89380
H1904       H  0.61807270  0.90572307  0.27317801     0.18310
H1905       H  0.63481186  0.99036371  0.22829935     0.18300
N1906       N  0.66983408  0.95438001  0.21649681    -0.88410
H1907       H  0.56630912  0.94337834  0.27487497     0.35680
H1908       H  0.58492746  0.95517621  0.30007646     0.40780
H1909       H  0.68124031  0.93753221  0.21542613     0.40400
H1910       H  0.68169492  0.96896898  0.22459654     0.35290
C1911       C  0.41050542  0.94077611  0.26819713    -0.26440
C1912       C  0.41260237  0.92987392  0.24283040    -0.14520
C1913       C  0.42228855  0.94608186  0.22239963     0.36110
C1914       C  0.43468299  0.96979101  0.22869027    -0.25890
C1915       C  0.43528948  0.97915941  0.25465051    -0.15130
C1916       C  0.42020560  0.96590433  0.27386379     0.37200
N1917       N  0.41518715  0.97659250  0.29950295    -0.89380
H1918       H  0.40204709  0.92957660  0.28412657     0.18310
H1919       H  0.44477237  0.98045338  0.21333200     0.18300
N1920       N  0.41993537  0.93846267  0.19529157    -0.88410
H1921       H  0.39510873  0.97614599  0.30244133     0.35680
H1922       H  0.41993706  0.99637617  0.30016791     0.40780
H1923       H  0.40934512  0.95293539  0.18547494     0.40400
H1924       H  0.43851974  0.93799322  0.18705388     0.35290
C1925       C  0.60462144  0.81587705  0.17341823    -0.26440
C1926       C  0.59969732  0.82942806  0.14978471    -0.14520
C1927       C  0.61260096  0.85356932  0.14531526     0.36110
C1928       C  0.62948292  0.86355417  0.16443883    -0.25890
C1929       C  0.63405682  0.85021068  0.18816565    -0.15130
C1930       C  0.62157647  0.82600589  0.19266526     0.37200
N1931       N  0.62553451  0.81216846  0.21701321    -0.89380
H1932       H  0.59519726  0.79721568  0.17693322     0.18310
H1933       H  0.63884658  0.88225517  0.16091296     0.18300
N1934       N  0.60835326  0.86898870  0.12212556    -0.88410
H1935       H  0.61515016  0.79455221  0.21705280     0.35680
H1936       H  0.61788810  0.82365363  0.23220251     0.40780
H1937       H  0.58844608  0.87234385  0.12001415     0.40400
H1938       H  0.61528961  0.85882248  0.10571470     0.35290
C1939       C  0.44521333  0.83955654  0.14993462    -0.26440
C1940       C  0.46885522  0.82740939  0.15670384    -0.14520
C1941       C  0.47553606  0.82534512  0.18388338     0.36110
C1942       C  0.45874935  0.83566348  0.20310812    -0.25890
C1943       C  0.43537492  0.84759480  0.19604820    -0.15130
C1944       C  0.42852683  0.84971823  0.16927431     0.37200
N1945       N  0.40453318  0.86207033  0.16186465    -0.89380
H1946       H  0.43952268  0.84107749  0.12942748     0.18310
H1947       H  0.46397076  0.83455310  0.22379041     0.18300
N1948       N  0.49921941  0.81290391  0.19210304    -0.88410
H1949       H  0.40200518  0.86145193  0.14141165     0.35680
H1950       H  0.40585073  0.88186760  0.16699678     0.40780
H1951       H  0.49685409  0.79275859  0.18920194     0.40400
H1952       H  0.50219543  0.81538358  0.21235665     0.35290
C1953       C  0.64952285  0.73542643  0.17371381    -0.26440
C1954       C  0.64554433  0.71515137  0.19178363    -0.14520
C1955       C  0.62085733  0.70319112  0.19344000     0.36110
C1956       C  0.60090583  0.71127157  0.17617063    -0.25890
C1957       C  0.60544539  0.73058640  0.15704953    -0.15130
C1958       C  0.62994521  0.74334249  0.15637023     0.37200
N1959       N  0.63604752  0.76391114  0.13803868    -0.89380
H1960       H  0.66848883  0.74456117  0.17231435     0.18310
H1961       H  0.58210146  0.70176029  0.17689918     0.18300
N1962       N  0.61612689  0.68304799  0.21262086    -0.88410
H1963       H  0.64116895  0.78051109  0.14898106     0.35680
H1964       H  0.61997277  0.76929414  0.12690920     0.40780
H1965       H  0.62717774  0.66670655  0.20743980     0.40400
H1966       H  0.59672404  0.67704651  0.21190013     0.35290
C1967       C  0.69641069  0.82624145  0.27232736    -0.26440
C1968       C  0.70296797  0.84920185  0.25852924    -0.14520
C1969       C  0.72912522  0.85780243  0.25859196     0.36110
C1970       C  0.74766042  0.84366709  0.27294303    -0.25890
C1971       C  0.74111796  0.82092266  0.28700063    -0.15130
C1972       C  0.71515445  0.81209357  0.28672024     0.37200
N1973       N  0.70793715  0.78880040  0.30079368    -0.89380
H1974       H  0.67645412  0.81950076  0.27206438     0.18310
H1975       H  0.76764647  0.85027886  0.27274215     0.18300
N1976       N  0.73781433  0.88032508  0.24401143    -0.88410
H1977       H  0.68819144  0.78477625  0.29821827     0.35680
H1978       H  0.71073742  0.79229081  0.32088114     0.40780
H1979       H  0.72287659  0.88881379  0.23310817     0.40400
H1980       H  0.75144298  0.87385606  0.23022242     0.35290
C1981       C  0.74757785  0.74223202  0.28798705    -0.26440
C1982       C  0.75727043  0.76525440  0.27645654    -0.14520
C1983       C  0.75089342  0.77083546  0.25003026     0.36110
C1984       C  0.73427553  0.75389430  0.23602621    -0.25890
C1985       C  0.72419926  0.73114588  0.24777757    -0.15130
C1986       C  0.73115890  0.72515533  0.27410844     0.37200
N1987       N  0.72135387  0.70252998  0.28773481    -0.89380
H1988       H  0.75228864  0.73783257  0.30834944     0.18310
H1989       H  0.72949335  0.75832915  0.21569615     0.18300
N1990       N  0.76145599  0.79340927  0.23722658    -0.88410
H1991       H  0.73706801  0.69016824  0.29155752     0.35680
H1992       H  0.70813397  0.69192867  0.27632430     0.40780
H1993       H  0.74599718  0.80474630  0.23032123     0.40400
H1994       H  0.77197915  0.78702873  0.22083521     0.35290
C1995       C  0.86794588  0.75384507  0.35442048    -0.26440
C1996       C  0.85778321  0.74139445  0.37680546    -0.14520
C1997       C  0.83133420  0.74439300  0.38299482     0.36110
C1998       C  0.81554796  0.75979748  0.36666121    -0.25890
C1999       C  0.82563444  0.77251359  0.34439418    -0.15130
C2000       C  0.85230744  0.76964846  0.33827066     0.37200
N2001       N  0.86410473  0.78215891  0.31593116    -0.89380
H2002       H  0.88836530  0.75174190  0.34980145     0.18310
H2003       H  0.79503249  0.76145954  0.37095827     0.18300
N2004       N  0.82061120  0.73157261  0.40573183    -0.88410
H2005       H  0.85077150  0.79363035  0.30569126     0.35680
H2006       H  0.87829188  0.79500866  0.32309552     0.40780
H2007       H  0.82193438  0.71137330  0.40259686     0.40400
H2008       H  0.80086954  0.73588555  0.40760848     0.35290
C2009       C  0.74774518  0.95316399  0.43792184    -0.26440
C2010       C  0.72142613  0.94798354  0.43369253    -0.14520
C2011       C  0.70316998  0.95569441  0.45297846     0.36110
C2012       C  0.71135235  0.97033995  0.47488252    -0.25890
C2013       C  0.73749380  0.97729956  0.47792622    -0.15130
C2014       C  0.75596634  0.96764324  0.45986243     0.37200
N2015       N  0.78309882  0.97228495  0.46392703    -0.89380
H2016       H  0.76189595  0.94709529  0.42337621     0.18310
H2017       H  0.69711801  0.97689802  0.48913622     0.18300
N2018       N  0.67632438  0.94877177  0.45033807    -0.88410
H2019       H  0.79391642  0.96048443  0.45119991     0.35680
H2020       H  0.78683127  0.99160848  0.45832480     0.40780
H2021       H  0.67095398  0.93795852  0.46694790     0.40400
H2022       H  0.66543248  0.96603626  0.45022593     0.35290
C2023       C  0.63885889  0.95385023  0.37511056    -0.26440
C2024       C  0.66062721  0.95145389  0.35870479    -0.14520
C2025       C  0.66040896  0.96294925  0.33351964     0.36110
C2026       C  0.63876949  0.97774764  0.32583028    -0.25890
C2027       C  0.61756264  0.98150296  0.34294206    -0.15130
C2028       C  0.61733245  0.96873489  0.36759135     0.37200
N2029       N  0.59591737  0.97177847  0.38543330    -0.89380
H2030       H  0.63905579  0.94463865  0.39435858     0.18310
H2031       H  0.63873262  0.98688127  0.30655555     0.18300
N2032       N  0.68241205  0.96040971  0.31631771    -0.88410
H2033       H  0.60031447  0.96364969  0.40381739     0.35680
H2034       H  0.58060957  0.96059286  0.37790761     0.40780
H2035       H  0.69804611  0.97012631  0.32517834     0.40400
H2036       H  0.67892730  0.96983228  0.29836355     0.35290
C2037       C  0.75547842  0.89052355  0.34407855    -0.26440
C2038       C  0.73265236  0.88558035  0.35828705    -0.14520
C2039       C  0.72353925  0.85961462  0.36094383     0.36110
C2040       C  0.73750190  0.83928964  0.34926242    -0.25890
C2041       C  0.76034852  0.84406464  0.33507139    -0.15130
C2042       C  0.76936493  0.87010521  0.33214509     0.37200
N2043       N  0.79224246  0.87656560  0.31730028    -0.89380
H2044       H  0.76244965  0.91046820  0.34209503     0.18310
H2045       H  0.73075091  0.81936382  0.35181142     0.18300
N2046       N  0.70040709  0.85305243  0.37536985    -0.88410
H2047       H  0.78652929  0.88861780  0.30169155     0.35680
H2048       H  0.80050582  0.85997802  0.30873684     0.40780
H2049       H  0.69135245  0.86955839  0.38322403     0.40400
H2050       H  0.70594696  0.84145238  0.39138759     0.35290
C2051       C  0.73299821  0.65992135  0.17047953    -0.26440
C2052       C  0.71687781  0.65211121  0.19119550    -0.14520
C2053       C  0.71155198  0.62513554  0.19495361     0.36110
C2054       C  0.72173261  0.60677102  0.17702444    -0.25890
C2055       C  0.73659837  0.61493754  0.15537420    -0.15130
C2056       C  0.74273546  0.64179876  0.15254752     0.37200
N2057       N  0.75901369  0.65128255  0.13174591    -0.89380
H2058       H  0.73720038  0.68054023  0.16757262     0.18310
H2059       H  0.71733774  0.58616014  0.17953671     0.18300
N2060       N  0.69569771  0.61580213  0.21626688    -0.88410
H2061       H  0.75001369  0.64758240  0.11367035     0.35680
H2062       H  0.77669666  0.64130286  0.13242822     0.40780
H2063       H  0.68961503  0.63115896  0.22836530     0.40400
H2064       H  0.70729378  0.60373791  0.22803172     0.35290
C2065       C  0.72351922  0.47831737  0.17297077    -0.26440
C2066       C  0.74681734  0.47601203  0.15896091    -0.14520
C2067       C  0.76145474  0.45264250  0.16110802     0.36110
C2068       C  0.75173413  0.43175137  0.17580792    -0.25890
C2069       C  0.72755506  0.43322954  0.18825075    -0.15130
C2070       C  0.71379156  0.45729895  0.18788825     0.37200
N2071       N  0.68971114  0.46087051  0.20172302    -0.89380
H2072       H  0.71222430  0.49613692  0.17137475     0.18310
H2073       H  0.76247530  0.41350580  0.17598132     0.18300
N2074       N  0.78576567  0.44890448  0.14784676    -0.88410
H2075       H  0.69235596  0.47632818  0.21501513     0.35680
H2076       H  0.68524959  0.44457480  0.21326313     0.40780
H2077       H  0.79200452  0.46596249  0.13865807     0.40400
H2078       H  0.78295876  0.43482139  0.13311930     0.35290
C2079       C  0.72693766  0.47704256  0.96266009    -0.26440
C2080       C  0.74391023  0.47109477  0.98345798    -0.14520
C2081       C  0.75206256  0.44504262  0.98749031     0.36110
C2082       C  0.74167123  0.42513532  0.97174141    -0.25890
C2083       C  0.72299296  0.43074537  0.95254312    -0.15130
C2084       C  0.71590333  0.45686267  0.94737823     0.37200
N2085       N  0.69706793  0.46261640  0.92727328    -0.89380
H2086       H  0.72097785  0.49714782  0.95955411     0.18310
H2087       H  0.74688161  0.40492181  0.97554891     0.18300
N2088       N  0.77006550  0.43883503  0.00828041    -0.88410
H2089       H  0.69422774  0.48283705  0.92582537     0.35680
H2090       H  0.67933343  0.45457533  0.93316610     0.40780
H2091       H  0.78768609  0.44799702  0.00394046     0.40400
H2092       H  0.77377264  0.41871274  0.00877444     0.35290
C2093       C  0.83989033  0.74229715  0.25398301    -0.26440
C2094       C  0.84600933  0.71830689  0.26583522    -0.14520
C2095       C  0.83451919  0.71170640  0.29018775     0.36110
C2096       C  0.81730884  0.72948907  0.30230778    -0.25890
C2097       C  0.81181391  0.75387238  0.29073161    -0.15130
C2098       C  0.82321868  0.76024731  0.26625946     0.37200
N2099       N  0.81806149  0.78514023  0.25409885    -0.89380
H2100       H  0.84847203  0.74714890  0.23511353     0.18310
H2101       H  0.80843122  0.72451782  0.32098158     0.18300
N2102       N  0.84017746  0.68695332  0.30233509    -0.88410
H2103       H  0.82774083  0.78669281  0.23607067     0.35680
H2104       H  0.82559773  0.79981828  0.26630107     0.40780
H2105       H  0.83293704  0.67223030  0.28998162     0.40400
H2106       H  0.83035389  0.68521847  0.32026944     0.35290
C2107       C  0.83499548  0.64259351  0.19570090    -0.26440
C2108       C  0.85730898  0.65727351  0.19015272    -0.14520
C2109       C  0.87006145  0.65362797  0.16585873     0.36110
C2110       C  0.86045389  0.63495892  0.14785086    -0.25890
C2111       C  0.83850684  0.61954376  0.15371331    -0.15130
C2112       C  0.82563094  0.62375689  0.17809588     0.37200
N2113       N  0.80287111  0.60955037  0.18567300    -0.89380
H2114       H  0.82532347  0.64495614  0.21451988     0.18310
H2115       H  0.87041394  0.63221521  0.12926057     0.18300
N2116       N  0.89285825  0.66869297  0.15974810    -0.88410
H2117       H  0.80745861  0.58971239  0.18747355     0.35680
H2118       H  0.78874351  0.61206455  0.17115502     0.40780
H2119       H  0.88733214  0.68835452  0.15866044     0.40400
H2120       H  0.90002988  0.66358774  0.14117076     0.35290
C2121       C  0.82476432  0.37511753  0.26755961    -0.26440
C2122       C  0.84779965  0.36888966  0.25419793    -0.14520
C2123       C  0.85660685  0.34265815  0.25389220     0.36110
C2124       C  0.84254274  0.32360252  0.26752567    -0.25890
C2125       C  0.81958700  0.32975611  0.28098111    -0.15130
C2126       C  0.81065303  0.35595094  0.28124768     0.37200
N2127       N  0.78780952  0.36387953  0.29537539    -0.89380
H2128       H  0.81824189  0.39528074  0.26823212     0.18310
H2129       H  0.84931753  0.30351462  0.26713165     0.18300
N2130       N  0.87958451  0.33459184  0.23999760    -0.88410
H2131       H  0.79361619  0.37726416  0.30986492     0.35680
H2132       H  0.77939893  0.34818378  0.30536757     0.40780
H2133       H  0.88784089  0.34999482  0.22942778     0.40400
H2134       H  0.87393797  0.32073241  0.22589615     0.35290
C2135       C  0.85860155  0.47347797  0.20116318    -0.26440
C2136       C  0.86116332  0.44679555  0.19489925    -0.14520
C2137       C  0.85572170  0.43826294  0.16907045     0.36110
C2138       C  0.84767311  0.45657421  0.15007299    -0.25890
C2139       C  0.84441558  0.48326341  0.15638231    -0.15130
C2140       C  0.84996322  0.49176943  0.18235413     0.37200
N2141       N  0.84748666  0.51891773  0.18947990    -0.89380
H2142       H  0.86296351  0.47998279  0.22103998     0.18310
H2143       H  0.84326552  0.44978088  0.13030961     0.18300
N2144       N  0.85857772  0.41109151  0.16218953    -0.88410
H2145       H  0.85490539  0.52218603  0.20841135     0.35680
H2146       H  0.82767996  0.52312225  0.19062663     0.40780
H2147       H  0.87822804  0.40634711  0.16403862     0.40400
H2148       H  0.85359755  0.40797886  0.14243285     0.35290
C2149       C  0.21490612  0.34852134  0.26205801    -0.26440
C2150       C  0.22272529  0.37475848  0.26396419    -0.14520
C2151       C  0.24390940  0.38130562  0.28048850     0.36110
C2152       C  0.25660576  0.36163118  0.29486172    -0.25890
C2153       C  0.24862248  0.33538545  0.29307624    -0.15130
C2154       C  0.22762097  0.32873229  0.27616476     0.37200
N2155       N  0.21900989  0.30215929  0.27227734    -0.89380
H2156       H  0.19851453  0.34339224  0.24963335     0.18310
H2157       H  0.27289560  0.36678768  0.30740028     0.18300
N2158       N  0.25244510  0.40784590  0.28354369    -0.88410
H2159       H  0.19981875  0.30088475  0.27880244     0.35680
H2160       H  0.22968621  0.28882228  0.28342845     0.40780
H2161       H  0.23681202  0.41905524  0.29021679     0.40400
H2162       H  0.25810285  0.41489440  0.26509162     0.35290
C2163       C  0.92313530  0.63085100  0.25396682    -0.26440
C2164       C  0.92375238  0.65793493  0.25804586    -0.14520
C2165       C  0.94513105  0.66894523  0.27161781     0.36110
C2166       C  0.96522909  0.65232262  0.28091426    -0.25890
C2167       C  0.96438526  0.62496481  0.27673249    -0.15130
C2168       C  0.94317514  0.61460980  0.26210547     0.37200
N2169       N  0.94149666  0.58744448  0.25514453    -0.89380
H2170       H  0.90675923  0.62188129  0.24394387     0.18310
H2171       H  0.98159583  0.66081488  0.29123571     0.18300
N2172       N  0.94647879  0.69674956  0.27574358    -0.88410
H2173       H  0.94077784  0.58598994  0.23458426     0.35680
H2174       H  0.92409479  0.57999083  0.26263697     0.40780
H2175       H  0.94791790  0.70562731  0.25724062     0.40400
H2176       H  0.96335184  0.70167871  0.28612708     0.35290
C2177       C  0.93953243  0.45615360  0.29945983    -0.26440
C2178       C  0.96512395  0.45216545  0.29113144    -0.14520
C2179       C  0.97055943  0.43364285  0.27131835     0.36110
C2180       C  0.94973625  0.42081452  0.25868108    -0.25890
C2181       C  0.92402793  0.42650075  0.26574759    -0.15130
C2182       C  0.91886409  0.44350333  0.28692270     0.37200
N2183       N  0.89253116  0.44920589  0.29430716    -0.89380
H2184       H  0.93559000  0.47052151  0.31470469     0.18310
H2185       H  0.95341797  0.40754774  0.24242258     0.18300
N2186       N  0.99688617  0.42899515  0.26327976    -0.88410
H2187       H  0.89207882  0.46291477  0.30963807     0.35680
H2188       H  0.88439662  0.43197618  0.30176094     0.40780
H2189       H  0.00400426  0.44627459  0.25491976     0.40400
H2190       H  0.99747053  0.41470874  0.24849892     0.35290
C2191       C  0.10041997  0.43214700  0.38121055    -0.26440
C2192       C  0.10714330  0.45881685  0.38233180    -0.14520
C2193       C  0.13314194  0.46575078  0.38868989     0.36110
C2194       C  0.15093963  0.44601832  0.39560264    -0.25890
C2195       C  0.14364556  0.41963778  0.39530346    -0.15130
C2196       C  0.11822381  0.41256261  0.38740209     0.37200
N2197       N  0.10956519  0.38577107  0.38576610    -0.89380
H2198       H  0.08093153  0.42621522  0.37575494     0.18310
H2199       H  0.17045080  0.45122354  0.40170719     0.18300
N2200       N  0.14150065  0.49261774  0.38817625    -0.88410
H2201       H  0.09516268  0.38306364  0.39999676     0.35680
H2202       H  0.12431734  0.37242395  0.38986352     0.40780
H2203       H  0.14087003  0.49881094  0.36853969     0.40400
H2204       H  0.16087073  0.49425963  0.39415564     0.35290
C2205       C  0.11937897  0.43323240  0.24997092    -0.26440
C2206       C  0.14078533  0.42661024  0.26585133    -0.14520
C2207       C  0.13928172  0.43061769  0.29337045     0.36110
C2208       C  0.11747499  0.44301234  0.30405975    -0.25890
C2209       C  0.09754603  0.45214140  0.28770305    -0.15130
C2210       C  0.09793571  0.44631484  0.26049075     0.37200
N2211       N  0.07743385  0.45413422  0.24291130    -0.89380
H2212       H  0.12002397  0.42966471  0.22890606     0.18310
H2213       H  0.11729496  0.44771353  0.32490902     0.18300
N2214       N  0.16066552  0.42424981  0.31027466    -0.88410
H2215       H  0.08494559  0.46833596  0.23018990     0.35680
H2216       H  0.06201804  0.46270336  0.25307508     0.40780
H2217       H  0.16687362  0.44141741  0.31964524     0.40400
H2218       H  0.15396276  0.41137923  0.32477657     0.35290
C2219       C  0.12334762  0.66927052  0.27621969    -0.26440
C2220       C  0.14757551  0.65763565  0.27144129    -0.14520
C2221       C  0.15114445  0.63101592  0.27722997     0.36110
C2222       C  0.13029859  0.61597639  0.28586426    -0.25890
C2223       C  0.10540405  0.62677820  0.28912235    -0.15130
C2224       C  0.10219580  0.65413147  0.28556779     0.37200
N2225       N  0.07755274  0.66626911  0.29052618    -0.89380
H2226       H  0.12074344  0.68986597  0.27186939     0.18310
H2227       H  0.13376864  0.59540047  0.28968851     0.18300
N2228       N  0.17595660  0.61892564  0.27343098    -0.88410
H2229       H  0.07825089  0.68614927  0.28565278     0.35680
H2230       H  0.07434640  0.66551548  0.31086335     0.40780
H2231       H  0.17364564  0.60350620  0.26003018     0.40400
H2232       H  0.18192491  0.61099717  0.29143820     0.35290
C2233       C  0.94417644  0.67669446  0.37685533    -0.26440
C2234       C  0.92335866  0.67041003  0.39328095    -0.14520
C2235       C  0.92116711  0.64490559  0.40356718     0.36110
C2236       C  0.93992972  0.62604008  0.39697765    -0.25890
C2237       C  0.96123408  0.63221864  0.38070537    -0.15130
C2238       C  0.96317926  0.65806722  0.37045923     0.37200
N2239       N  0.98435619  0.66556615  0.35368348    -0.89380
H2240       H  0.94594027  0.69654876  0.36951348     0.18310
H2241       H  0.93792991  0.60644356  0.40487145     0.18300
N2242       N  0.89976230  0.63819824  0.42043418    -0.88410
H2243       H  0.98339017  0.68547080  0.34895934     0.35680
H2244       H  0.98197819  0.65546375  0.33595811     0.40780
H2245       H  0.90189157  0.64866564  0.43803008     0.40400
H2246       H  0.90045511  0.61837230  0.42551979     0.35290
C2247       C  0.22298153  0.64367852  0.15270591    -0.26440
C2248       C  0.21928263  0.61640936  0.15473644    -0.14520
C2249       C  0.20755045  0.60611827  0.17770826     0.36110
C2250       C  0.20159278  0.62303945  0.19853537    -0.25890
C2251       C  0.20574152  0.65023026  0.19684045    -0.15130
C2252       C  0.21642305  0.66060680  0.17357705     0.37200
N2253       N  0.22052501  0.68822758  0.17100350    -0.89380
H2254       H  0.23188752  0.65181457  0.13518218     0.18310
H2255       H  0.19336176  0.61472530  0.21628770     0.18300
N2256       N  0.20094356  0.57884311  0.18055887    -0.88410
H2257       H  0.21013107  0.69470199  0.15453787     0.35680
H2258       H  0.24025981  0.69137494  0.16739937     0.40780
H2259       H  0.20357752  0.56849585  0.16303592     0.40400
H2260       H  0.18100813  0.57775844  0.18425239     0.35290
C2261       C  0.21554399  0.49163311  0.18094678    -0.26440
C2262       C  0.21732393  0.48169224  0.15508942    -0.14520
C2263       C  0.21314894  0.45436747  0.15120049     0.36110
C2264       C  0.20812830  0.43803481  0.17282709    -0.25890
C2265       C  0.20687551  0.44808051  0.19847157    -0.15130
C2266       C  0.21035412  0.47518969  0.20255833     0.37200
N2267       N  0.20864303  0.48587711  0.22874191    -0.89380
H2268       H  0.21866515  0.51234403  0.18444159     0.18310
H2269       H  0.20491593  0.41729603  0.16953649     0.18300
N2270       N  0.21489948  0.44225781  0.12582314    -0.88410
H2271       H  0.21152542  0.50615167  0.22846032     0.35680
H2272       H  0.22382665  0.47793215  0.23983794     0.40780
H2273       H  0.23336016  0.44581449  0.11812558     0.40400
H2274       H  0.20073222  0.45036913  0.11357319     0.35290
C2275       C  0.34373254  0.47963840  0.16934966    -0.26440
C2276       C  0.31827681  0.47902430  0.15958120    -0.14520
C2277       C  0.30175845  0.45799670  0.16671076     0.36110
C2278       C  0.31150314  0.43740699  0.18183862    -0.25890
C2279       C  0.33747629  0.43691672  0.18993870    -0.15130
C2280       C  0.35343498  0.45892332  0.18480885     0.37200
N2281       N  0.37963003  0.45970662  0.19457964    -0.89380
H2282       H  0.35635212  0.49577719  0.16400698     0.18310
H2283       H  0.29904448  0.42067859  0.18551331     0.18300
N2284       N  0.27551281  0.45578019  0.15754508    -0.88410
H2285       H  0.38878014  0.47711806  0.18896721     0.35680
H2286       H  0.37872095  0.45987294  0.21517044     0.40780
H2287       H  0.27033774  0.47155628  0.14574196     0.40400
H2288       H  0.26361643  0.45642879  0.17419285     0.35290
C2289       C  0.42746440  0.73508588  0.18594030    -0.26440
C2290       C  0.42538356  0.70896966  0.19430382    -0.14520
C2291       C  0.44541206  0.69113643  0.18772236     0.36110
C2292       C  0.46564327  0.69922382  0.17094032    -0.25890
C2293       C  0.46670817  0.72493974  0.16146515    -0.15130
C2294       C  0.44782230  0.74319761  0.16952407     0.37200
N2295       N  0.44851921  0.76957505  0.15974100    -0.89380
H2296       H  0.41219860  0.74886070  0.19066982     0.18310
H2297       H  0.48024721  0.68530105  0.16468770     0.18300
N2298       N  0.44483015  0.66478857  0.19766214    -0.88410
H2299       H  0.43359163  0.78071571  0.16801819     0.35680
H2300       H  0.44487066  0.76885630  0.13947273     0.40780
H2301       H  0.44650443  0.66583283  0.21818391     0.40400
H2302       H  0.46085880  0.65420879  0.19091352     0.35290
C2303       C  0.32471435  0.65183598  0.18510968    -0.26440
C2304       C  0.34999394  0.64747127  0.19448549    -0.14520
C2305       C  0.36228838  0.62328353  0.18856852     0.36110
C2306       C  0.35005505  0.60553403  0.17140810    -0.25890
C2307       C  0.32542151  0.61076284  0.16096715    -0.15130
C2308       C  0.31218950  0.63376709  0.16871196     0.37200
N2309       N  0.28665379  0.64022692  0.15930667    -0.89380
H2310       H  0.31499602  0.67017690  0.18932606     0.18310
H2311       H  0.36004826  0.58770045  0.16584450     0.18300
N2312       N  0.38686610  0.61591257  0.19975137    -0.88410
H2313       H  0.27447252  0.64120741  0.17573985     0.35680
H2314       H  0.27906313  0.62563716  0.14714121     0.40780
H2315       H  0.39280730  0.62887401  0.21451314     0.40400
H2316       H  0.40069734  0.61632823  0.18470327     0.35290
C2317       C  0.24879077  0.75547290  0.27588751    -0.26440
C2318       C  0.26300244  0.74602908  0.29750205    -0.14520
C2319       C  0.26020159  0.71948998  0.30498710     0.36110
C2320       C  0.24239721  0.70351857  0.29133480    -0.25890
C2321       C  0.22782306  0.71317719  0.27000350    -0.15130
C2322       C  0.23127707  0.73951663  0.26205289     0.37200
N2323       N  0.21708761  0.75095903  0.24049966    -0.89380
H2324       H  0.25079187  0.77583134  0.27015794     0.18310
H2325       H  0.23996572  0.68330839  0.29737359     0.18300
N2326       N  0.27483619  0.70819685  0.32626873    -0.88410
H2327       H  0.20559005  0.76596829  0.24822417     0.35680
H2328       H  0.20437940  0.73762282  0.23170607     0.40780
H2329       H  0.28794352  0.72168236  0.33420246     0.40400
H2330       H  0.28608459  0.69309504  0.31835872     0.35290
C2331       C  0.31354871  0.75974550  0.25724007    -0.26440
C2332       C  0.31770222  0.75938821  0.28453640    -0.14520
C2333       C  0.33744378  0.74312495  0.29512997     0.36110
C2334       C  0.35221102  0.72747127  0.27815267    -0.25890
C2335       C  0.34778929  0.72746949  0.25092728    -0.15130
C2336       C  0.32825847  0.74392867  0.24026688     0.37200
N2337       N  0.32298498  0.74536157  0.21244557    -0.89380
H2338       H  0.29868885  0.77235232  0.24906268     0.18310
H2339       H  0.36700828  0.71479066  0.28636989     0.18300
N2340       N  0.34277670  0.74151670  0.32295512    -0.88410
H2341       H  0.30424131  0.73809419  0.20932903     0.35680
H2342       H  0.33554985  0.73364072  0.20148405     0.40780
H2343       H  0.33036063  0.75318821  0.33412428     0.40400
H2344       H  0.36154959  0.74870158  0.32607189     0.35290
C2345       C  0.35730199  0.81413321  0.30237481    -0.26440
C2346       C  0.33089968  0.81477972  0.29561580    -0.14520
C2347       C  0.32282978  0.83047767  0.27403510     0.36110
C2348       C  0.34127424  0.84517207  0.26007655    -0.25890
C2349       C  0.36764964  0.84457631  0.26679746    -0.15130
C2350       C  0.37577782  0.82888221  0.28836503     0.37200
N2351       N  0.40243769  0.82747703  0.29671078    -0.89380
H2352       H  0.36358412  0.80221190  0.31884690     0.18310
H2353       H  0.33494179  0.85706891  0.24359465     0.18300
N2354       N  0.29613038  0.83235974  0.26586528    -0.88410
H2355       H  0.40343520  0.83484113  0.31593916     0.35680
H2356       H  0.41442795  0.83939854  0.28530306     0.40780
H2357       H  0.28378118  0.82123765  0.27766903     0.40400
H2358       H  0.29476728  0.82461297  0.24681730     0.35290
C2359       C  0.23252305  0.73835029  0.38874890    -0.26440
C2360       C  0.20679061  0.73920578  0.37982588    -0.14520
C2361       C  0.20106040  0.75204287  0.35579376     0.36110
C2362       C  0.22107632  0.76388886  0.34138729    -0.25890
C2363       C  0.24675590  0.76328464  0.35055627    -0.15130
C2364       C  0.25250967  0.75012255  0.37425407     0.37200
N2365       N  0.27873493  0.74856644  0.38354793    -0.89380
H2366       H  0.23710215  0.72854356  0.40711613     0.18310
H2367       H  0.21653838  0.77393823  0.32316048     0.18300
N2368       N  0.17502916  0.75412717  0.34607465    -0.88410
H2369       H  0.27941894  0.75654373  0.40253146     0.35680
H2370       H  0.28370181  0.72877582  0.38499052     0.40780
H2371       H  0.16365868  0.76301409  0.36059501     0.40400
H2372       H  0.16781660  0.73531211  0.34255110     0.35290
C2373       C  0.14344856  0.64933552  0.39168569    -0.26440
C2374       C  0.13425984  0.67502242  0.39368973    -0.14520
C2375       C  0.10766140  0.68021628  0.38892324     0.36110
C2376       C  0.09078331  0.65943512  0.38339046    -0.25890
C2377       C  0.09969319  0.63350777  0.38205249    -0.15130
C2378       C  0.12655787  0.62851455  0.38557860     0.37200
N2379       N  0.13674081  0.60249627  0.38251424    -0.89380
H2380       H  0.16383787  0.64549782  0.39525743     0.18310
H2381       H  0.07044463  0.66370062  0.38003756     0.18300
N2382       N  0.09712814  0.70629395  0.38906161    -0.88410
H2383       H  0.15671069  0.60219563  0.38621147     0.35680
H2384       H  0.13431572  0.59715039  0.36274478     0.40780
H2385       H  0.11150608  0.72060318  0.39086557     0.40400
H2386       H  0.08495532  0.70792827  0.40544584     0.35290
C2387       C  0.60723072  0.81221296  0.92614756    -0.26440
C2388       C  0.62508728  0.83231138  0.93093405    -0.14520
C2389       C  0.62883550  0.84169440  0.95690239     0.36110
C2390       C  0.61308217  0.83217937  0.97707372    -0.25890
C2391       C  0.59395840  0.81305668  0.97229210    -0.15130
C2392       C  0.59152928  0.80240804  0.94648578     0.37200
N2393       N  0.57310198  0.78197967  0.94075065    -0.89380
H2394       H  0.60460416  0.80509369  0.90616784     0.18310
H2395       H  0.61577086  0.84021392  0.99668103     0.18300
N2396       N  0.64808256  0.86114042  0.96348546    -0.88410
H2397       H  0.57585672  0.77466912  0.92168856     0.35680
H2398       H  0.55464837  0.79045946  0.94079107     0.40780
H2399       H  0.65969831  0.86581960  0.94733663     0.40400
H2400       H  0.66062868  0.85284399  0.97737490     0.35290
C2401       C  0.63519177  0.92558649  0.85502615    -0.26440
C2402       C  0.63412525  0.91485004  0.88054673    -0.14520
C2403       C  0.62147289  0.92974672  0.90054826     0.36110
C2404       C  0.60465133  0.94997981  0.89321338    -0.25890
C2405       C  0.60300806  0.95796069  0.86693240    -0.15130
C2406       C  0.62113632  0.94809759  0.84876859     0.37200
N2407       N  0.62623682  0.96102257  0.82432965    -0.89380
H2408       H  0.64620032  0.91632932  0.83948124     0.18310
H2409       H  0.59310230  0.95971927  0.90812556     0.18300
N2410       N  0.62627335  0.92593505  0.92821024    -0.88410
H2411       H  0.60874601  0.96375561  0.81451200     0.35680
H2412       H  0.63373890  0.97954535  0.82875532     0.40780
H2413       H  0.64148026  0.91283782  0.93146034     0.40400
H2414       H  0.60937979  0.91866614  0.93695074     0.35290
C2415       C  0.42391845  0.83572185  0.95798212    -0.26440
C2416       C  0.43214136  0.83014438  0.93229433    -0.14520
C2417       C  0.45507833  0.81556845  0.92834265     0.36110
C2418       C  0.46947359  0.80745165  0.95022724    -0.25890
C2419       C  0.46189112  0.81358803  0.97620649    -0.15130
C2420       C  0.43847239  0.82770533  0.98004061     0.37200
N2421       N  0.42948572  0.83409526  0.00608410    -0.89380
H2422       H  0.40640769  0.84712039  0.96077985     0.18310
H2423       H  0.48715636  0.79658467  0.94660740     0.18300
N2424       N  0.46497771  0.80944490  0.90253919    -0.88410
H2425       H  0.41109930  0.84269901  0.00530001     0.35680
H2426       H  0.44195757  0.84840676  0.01371877     0.40780
H2427       H  0.45330022  0.81687142  0.88750140     0.40400
H2428       H  0.46475874  0.78906287  0.90049315     0.35290
C2429       C  0.42299936  0.92713710  0.88869738    -0.26440
C2430       C  0.42514494  0.90519581  0.87201937    -0.14520
C2431       C  0.44116086  0.90663957  0.84962177     0.36110
C2432       C  0.45553981  0.92950708  0.84499861    -0.25890
C2433       C  0.45464912  0.95101592  0.86238717    -0.15130
C2434       C  0.43733795  0.95023760  0.88392122     0.37200
N2435       N  0.43544809  0.97212726  0.90165037    -0.89380
H2436       H  0.41077403  0.92584420  0.90600778     0.18310
H2437       H  0.46836840  0.93013526  0.82813151     0.18300
N2438       N  0.44387613  0.88437023  0.83243234    -0.88410
H2439       H  0.42293234  0.96773744  0.91723886     0.35680
H2440       H  0.42677719  0.98749302  0.89129181     0.40780
H2441       H  0.45269731  0.86937385  0.84321730     0.40400
H2442       H  0.45641296  0.88869117  0.81685568     0.35290
C2443       C  0.20630671  0.64343154  0.94859085    -0.26440
C2444       C  0.22362561  0.64229669  0.92721971    -0.14520
C2445       C  0.24798292  0.63020401  0.93053953     0.36110
C2446       C  0.25385746  0.61829814  0.95464902    -0.25890
C2447       C  0.23589200  0.61782473  0.97548593    -0.15130
C2448       C  0.21223121  0.63143333  0.97281896     0.37200
N2449       N  0.19368706  0.63168330  0.99394798    -0.89380
H2450       H  0.18768287  0.65292571  0.94599507     0.18310
H2451       H  0.27224827  0.60825057  0.95677614     0.18300
N2452       N  0.26609488  0.62873927  0.90903322    -0.88410
H2453       H  0.17664543  0.64112841  0.98806903     0.35680
H2454       H  0.20152762  0.64303887  0.00918252     0.40780
H2455       H  0.25782681  0.61692621  0.89438552     0.40400
H2456       H  0.28325097  0.61951345  0.91493598     0.35290
C2457       C  0.24314277  0.36783939  0.86714490    -0.26440
C2458       C  0.24252783  0.39239321  0.85498982    -0.14520
C2459       C  0.25637241  0.39614110  0.83113435     0.36110
C2460       C  0.27044728  0.37517133  0.82026910    -0.25890
C2461       C  0.27061074  0.35036922  0.83222195    -0.15130
C2462       C  0.25655130  0.34674116  0.85601821     0.37200
N2463       N  0.25353792  0.32161304  0.86840166    -0.89380
H2464       H  0.23201374  0.36465973  0.88498338     0.18310
H2465       H  0.28111155  0.37816188  0.80212107     0.18300
N2466       N  0.25693590  0.42086008  0.81760428    -0.88410
H2467       H  0.26075514  0.32311126  0.88758393     0.35680
H2468       H  0.26383846  0.30688843  0.85878407     0.40780
H2469       H  0.24711187  0.43540948  0.82801935     0.40400
H2470       H  0.24726065  0.41838822  0.79962254     0.35290
C2471       C  0.22146189  0.48345638  0.92596551    -0.26440
C2472       C  0.21938695  0.45614586  0.92749929    -0.14520
C2473       C  0.21977270  0.44388531  0.95238594     0.36110
C2474       C  0.22307151  0.45930774  0.97530315    -0.25890
C2475       C  0.22605272  0.48666958  0.97360235    -0.15130
C2476       C  0.22460894  0.49875398  0.94859907     0.37200
N2477       N  0.22629637  0.52667018  0.94605609    -0.89380
H2478       H  0.22042826  0.49304796  0.90692890     0.18310
H2479       H  0.22442091  0.44985566  0.99436501     0.18300
N2480       N  0.21690652  0.41595385  0.95424682    -0.88410
H2481       H  0.20939752  0.53328386  0.93677988     0.35680
H2482       H  0.24203013  0.53104825  0.93382806     0.40780
H2483       H  0.19831999  0.41115802  0.94745476     0.40400
H2484       H  0.21781298  0.40999536  0.97394139     0.35290
C2485       C  0.92216520  0.42441198  0.74659475    -0.26440
C2486       C  0.90113344  0.43080714  0.73027975    -0.14520
C2487       C  0.89979634  0.45601842  0.71881276     0.36110
C2488       C  0.91977928  0.47409083  0.72381810    -0.25890
C2489       C  0.94145261  0.46712991  0.73908677    -0.15130
C2490       C  0.94242875  0.44222761  0.75100456     0.37200
N2491       N  0.96402718  0.43511541  0.76749694    -0.89380
H2492       H  0.92335558  0.40489101  0.75490131     0.18310
H2493       H  0.91872512  0.49345377  0.71514915     0.18300
N2494       N  0.87871881  0.46381655  0.70196408    -0.88410
H2495       H  0.96186163  0.41598732  0.77450323     0.35680
H2496       H  0.96375466  0.44734844  0.78402918     0.40780
H2497       H  0.86466795  0.44913378  0.70040669     0.40400
H2498       H  0.88626342  0.46675889  0.68307522     0.35290
C2499       C  0.16154018  0.45943571  0.72322991    -0.26440
C2500       C  0.15957937  0.43483739  0.73541252    -0.14520
C2501       C  0.13788295  0.42915585  0.75130088     0.36110
C2502       C  0.11767752  0.44739825  0.75315236    -0.25890
C2503       C  0.11901447  0.47146316  0.73999261    -0.15130
C2504       C  0.14165836  0.47814995  0.72589877     0.37200
N2505       N  0.14371297  0.50319323  0.71314506    -0.89380
H2506       H  0.17791545  0.46342299  0.71046963     0.18310
H2507       H  0.10071635  0.44282067  0.76490620     0.18300
N2508       N  0.13565508  0.40402079  0.76385702    -0.88410
H2509       H  0.16101925  0.50440987  0.70248362     0.35680
H2510       H  0.14495324  0.51749608  0.72786156     0.40780
H2511       H  0.15041969  0.40280277  0.77797223     0.40400
H2512       H  0.11811277  0.40256317  0.77407902     0.35290
C2513       C  0.15917784  0.60353282  0.85818891    -0.26440
C2514       C  0.16069627  0.63071506  0.85428375    -0.14520
C2515       C  0.13979509  0.64381820  0.84207482     0.36110
C2516       C  0.11792804  0.62930937  0.83383684    -0.25890
C2517       C  0.11658338  0.60209859  0.83776354    -0.15130
C2518       C  0.13739916  0.58913807  0.85043605     0.37200
N2519       N  0.13687092  0.56164060  0.85659996    -0.89380
H2520       H  0.17506230  0.59333338  0.86772315     0.18310
H2521       H  0.10211438  0.63914464  0.82381117     0.18300
N2522       N  0.14077267  0.67168961  0.83825626    -0.88410
H2523       H  0.15025736  0.55224474  0.84436445     0.35680
H2524       H  0.11870420  0.55321422  0.85322974     0.40780
H2525       H  0.14109641  0.68048816  0.85688393     0.40400
H2526       H  0.12391982  0.67822874  0.82883873     0.35290
C2527       C  0.13775944  0.44507981  0.86490430    -0.26440
C2528       C  0.16137781  0.44666150  0.85127698    -0.14520
C2529       C  0.16265361  0.46056041  0.82739024     0.36110
C2530       C  0.14054047  0.47383811  0.81839440    -0.25890
C2531       C  0.11724917  0.47383032  0.83295520    -0.15130
C2532       C  0.11559509  0.45832575  0.85597821     0.37200
N2533       N  0.09194505  0.45689930  0.87089407    -0.89380
H2534       H  0.13694626  0.43419221  0.88321866     0.18310
H2535       H  0.14180444  0.48490928  0.80022938     0.18300
N2536       N  0.18663849  0.46216343  0.81302052    -0.88410
H2537       H  0.09485156  0.44659700  0.88845420     0.35680
H2538       H  0.07881143  0.44572301  0.85987154     0.40780
H2539       H  0.19991694  0.47257563  0.82463190     0.40400
H2540       H  0.18416737  0.47291759  0.79566654     0.35290
C2541       C  0.13940498  0.60117151  0.72641671    -0.26440
C2542       C  0.11573509  0.60959726  0.73706315    -0.14520
C2543       C  0.11240484  0.63621145  0.74382844     0.36110
C2544       C  0.13222842  0.65408902  0.73823985    -0.25890
C2545       C  0.15502599  0.64602078  0.72569875    -0.15130
C2546       C  0.15908458  0.61914985  0.72037185     0.37200
N2547       N  0.18227012  0.60962965  0.70789709    -0.89380
H2548       H  0.14228632  0.58060144  0.72199018     0.18310
H2549       H  0.12921376  0.67476218  0.74207736     0.18300
N2550       N  0.08904988  0.64499409  0.75652321    -0.88410
H2551       H  0.19122556  0.59670873  0.72103573     0.35680
H2552       H  0.19557118  0.62471824  0.70464172     0.40780
H2553       H  0.07428462  0.64468407  0.74239397     0.40400
H2554       H  0.09087705  0.66455046  0.76241161     0.35290
C2555       C  0.27846860  0.69952260  0.81882025    -0.26440
C2556       C  0.27033133  0.72552276  0.81556242    -0.14520
C2557       C  0.24614140  0.73337216  0.82588586     0.36110
C2558       C  0.23032587  0.71522558  0.83881619    -0.25890
C2559       C  0.23846568  0.68940092  0.84233452    -0.15130
C2560       C  0.26275752  0.68135029  0.83236850     0.37200
N2561       N  0.27142153  0.65492329  0.83640442    -0.89380
H2562       H  0.29710092  0.69354128  0.81102843     0.18310
H2563       H  0.21194903  0.72157503  0.84697765     0.18300
N2564       N  0.23800760  0.76011971  0.82418406    -0.88410
H2565       H  0.28976887  0.65220626  0.82807718     0.35680
H2566       H  0.25867730  0.64253102  0.82624105     0.40780
H2567       H  0.23564379  0.76726200  0.84335687     0.40400
H2568       H  0.21983246  0.76053494  0.81500717     0.35290
C2569       C  0.24868836  0.70596766  0.73088360    -0.26440
C2570       C  0.22312686  0.71494276  0.72825555    -0.14520
C2571       C  0.21546997  0.73774353  0.74218886     0.36110
C2572       C  0.23346572  0.75069718  0.75838409    -0.25890
C2573       C  0.25915183  0.74196626  0.76097644    -0.15130
C2574       C  0.26686043  0.71926307  0.74675570     0.37200
N2575       N  0.29296483  0.70934034  0.74742721    -0.89380
H2576       H  0.25462602  0.68846228  0.72040653     0.18310
H2577       H  0.22700953  0.76759992  0.76931541     0.18300
N2578       N  0.18946784  0.74794864  0.74118085    -0.88410
H2579       H  0.29248456  0.69110538  0.75676672     0.35680
H2580       H  0.30544015  0.72129820  0.75831738     0.40780
H2581       H  0.17714867  0.73650003  0.72958206     0.40400
H2582       H  0.19035431  0.76642330  0.73234712     0.35290
C2583       C  0.32958075  0.80885379  0.84253561    -0.26440
C2584       C  0.33968524  0.79336033  0.82214901    -0.14520
C2585       C  0.36679581  0.79186793  0.81877486     0.36110
C2586       C  0.38311511  0.80714337  0.83504610    -0.25890
C2587       C  0.37280461  0.82359287  0.85462905    -0.15130
C2588       C  0.34565876  0.82420369  0.85860627     0.37200
N2589       N  0.33368383  0.83993868  0.87873326    -0.89380
H2590       H  0.30878126  0.80946388  0.84562885     0.18310
H2591       H  0.40397522  0.80620477  0.83254009     0.18300
N2592       N  0.37766335  0.77423449  0.79967859    -0.88410
H2593       H  0.32202581  0.85382040  0.86930210     0.35680
H2594       H  0.34730481  0.85037513  0.88980960     0.40780
H2595       H  0.37253125  0.78090373  0.78097567     0.40400
H2596       H  0.39793379  0.77472550  0.80052109     0.35290
C2597       C  0.37978278  0.90895240  0.64442322    -0.26440
C2598       C  0.37507955  0.91125312  0.67149871    -0.14520
C2599       C  0.36367024  0.93427543  0.68161100     0.36110
C2600       C  0.35799397  0.95502605  0.66457008    -0.25890
C2601       C  0.36278752  0.95296954  0.63751108    -0.15130
C2602       C  0.37338588  0.92955886  0.62716316     0.37200
N2603       N  0.37810057  0.92707027  0.59934148    -0.89380
H2604       H  0.38907897  0.89144595  0.63692963     0.18310
H2605       H  0.34929430  0.97272527  0.67236833     0.18300
N2606       N  0.35876172  0.93673443  0.70941638    -0.88410
H2607       H  0.38589150  0.90867140  0.59498932     0.35680
H2608       H  0.39218717  0.94091783  0.59423209     0.40780
H2609       H  0.34462921  0.92289415  0.71439666     0.40400
H2610       H  0.35095374  0.95511640  0.71379649     0.35290
C2611       C  0.42410679  0.93851248  0.74203294    -0.26440
C2612       C  0.43115046  0.91206497  0.74358474    -0.14520
C2613       C  0.45376473  0.90511719  0.75757254     0.36110
C2614       C  0.46902901  0.92486390  0.76919325    -0.25890
C2615       C  0.46250980  0.95161322  0.76660588    -0.15130
C2616       C  0.43969087  0.95834043  0.75247650     0.37200
N2617       N  0.43228173  0.98519958  0.74837351    -0.89380
H2618       H  0.40662173  0.94389235  0.73147954     0.18310
H2619       H  0.48639001  0.91921829  0.77983028     0.18300
N2620       N  0.46211010  0.87845611  0.75954304    -0.88410
H2621       H  0.41382253  0.98643813  0.73985802     0.35680
H2622       H  0.44505203  0.99305436  0.73445353     0.40780
H2623       H  0.46418682  0.87091550  0.74048925     0.40400
H2624       H  0.44775650  0.86771285  0.76923899     0.35290
C2625       C  0.34603142  0.85410855  0.76244937    -0.26440
C2626       C  0.36057060  0.84507418  0.74093098    -0.14520
C2627       C  0.35745024  0.81889532  0.73232282     0.36110
C2628       C  0.34042187  0.80237563  0.74591934    -0.25890
C2629       C  0.32644583  0.81108175  0.76799503    -0.15130
C2630       C  0.32881851  0.83760294  0.77593950     0.37200
N2631       N  0.31363603  0.84877359  0.79679169    -0.89380
H2632       H  0.34783262  0.87437354  0.76861993     0.18310
H2633       H  0.33865929  0.78212987  0.73965235     0.18300
N2634       N  0.37181744  0.80805568  0.71061713    -0.88410
H2635       H  0.32638906  0.85494308  0.81161627     0.35680
H2636       H  0.30127576  0.83493727  0.80505729     0.40780
H2637       H  0.38499380  0.82143284  0.70273257     0.40400
H2638       H  0.35853451  0.80345994  0.69569016     0.35290
C2639       C  0.41479549  0.70114009  0.97391000    -0.26440
C2640       C  0.41922453  0.70398687  0.94674570    -0.14520
C2641       C  0.44279980  0.71509237  0.93822572     0.36110
C2642       C  0.46165994  0.72235293  0.95714948    -0.25890
C2643       C  0.45759703  0.71831135  0.98442568    -0.15130
C2644       C  0.43363098  0.70760783  0.99260666     0.37200
N2645       N  0.42807108  0.70307395  0.01989072    -0.89380
H2646       H  0.39648530  0.69325833  0.98083644     0.18310
H2647       H  0.47970399  0.73095114  0.95044787     0.18300
N2648       N  0.44768823  0.71857303  0.91056656    -0.88410
H2649       H  0.42404410  0.68314431  0.02235493     0.35680
H2650       H  0.41141962  0.71364727  0.02486364     0.40780
H2651       H  0.44839291  0.69999496  0.90190046     0.40400
H2652       H  0.46588157  0.72717655  0.90762114     0.35290
C2653       C  0.32975818  0.65136494  0.95508440    -0.26440
C2654       C  0.34988294  0.64159764  0.93934242    -0.14520
C2655       C  0.35913721  0.61586912  0.94355328     0.36110
C2656       C  0.34885731  0.60111934  0.96432352    -0.25890
C2657       C  0.32995692  0.61164789  0.98110347    -0.15130
C2658       C  0.31978204  0.63685363  0.97604899     0.37200
N2659       N  0.29933072  0.64833798  0.99148719    -0.89380
H2660       H  0.32281386  0.67118223  0.95209277     0.18310
H2661       H  0.35609754  0.58149017  0.96777007     0.18300
N2662       N  0.37933809  0.60449941  0.92772701    -0.88410
H2663       H  0.30704893  0.66463004  0.00127408     0.35680
H2664       H  0.29234621  0.63563753  0.00591381     0.40780
H2665       H  0.38474325  0.61698919  0.91240391     0.40400
H2666       H  0.37165791  0.58775886  0.91870280     0.35290
C2667       C  0.32916794  0.72885671  0.88200018    -0.26440
C2668       C  0.35158948  0.71477418  0.87522308    -0.14520
C2669       C  0.35955478  0.71385323  0.84857317     0.36110
C2670       C  0.34478890  0.72688385  0.82948511    -0.25890
C2671       C  0.32250950  0.74114836  0.83623151    -0.15130
C2672       C  0.31464876  0.74229788  0.86290654     0.37200
N2673       N  0.29252231  0.75714589  0.87141566    -0.89380
H2674       H  0.32290376  0.72940070  0.90238501     0.18310
H2675       H  0.35084648  0.72597611  0.80904421     0.18300
N2676       N  0.38199489  0.69946262  0.83999948    -0.88410
H2677       H  0.27871429  0.74387999  0.87847695     0.35680
H2678       H  0.28392416  0.76720869  0.85581150     0.40780
H2679       H  0.39137246  0.69014231  0.85561985     0.40400
H2680       H  0.39522164  0.71296219  0.83227043     0.35290
C2681       C  0.13588148  0.75045360  0.63642850    -0.26440
C2682       C  0.11538718  0.73554156  0.62607160    -0.14520
C2683       C  0.11733640  0.70798074  0.62688676     0.36110
C2684       C  0.13822549  0.69648250  0.64045870    -0.25890
C2685       C  0.15670252  0.71155340  0.65472625    -0.15130
C2686       C  0.15623786  0.73908335  0.65059787     0.37200
N2687       N  0.17577777  0.75645196  0.66029194    -0.89380
H2688       H  0.13587218  0.77148912  0.63393142     0.18310
H2689       H  0.13934181  0.67531147  0.64050504     0.18300
N2690       N  0.09920232  0.69100561  0.61365296    -0.88410
H2691       H  0.19339752  0.75217967  0.65112102     0.35680
H2692       H  0.17696937  0.75502719  0.68078910     0.40780
H2693       H  0.08579839  0.70144136  0.60240591     0.40400
H2694       H  0.08884895  0.68082333  0.62809308     0.35290
C2695       C  0.13456044  0.74327083  0.50466648    -0.26440
C2696       C  0.11449253  0.76060513  0.49806574    -0.14520
C2697       C  0.11322852  0.77094277  0.47224503     0.36110
C2698       C  0.13104917  0.76274482  0.45333884    -0.25890
C2699       C  0.14950825  0.74352701  0.45918971    -0.15130
C2700       C  0.15190468  0.73422723  0.48537463     0.37200
N2701       N  0.17075463  0.71481181  0.49270595    -0.89380
H2702       H  0.13583140  0.73555088  0.52452477     0.18310
H2703       H  0.12894743  0.76968671  0.43324697     0.18300
N2704       N  0.09358554  0.78918046  0.46438248    -0.88410
H2705       H  0.18282754  0.72316738  0.50703613     0.35680
H2706       H  0.18275604  0.71006109  0.47684721     0.40780
H2707       H  0.09408564  0.80519090  0.47718307     0.40400
H2708       H  0.07544608  0.78015866  0.46581492     0.35290
C2709       C  0.93249309  0.77221864  0.48142352    -0.26440
C2710       C  0.93885381  0.75589718  0.50259364    -0.14520
C2711       C  0.92800447  0.73054950  0.50420244     0.36110
C2712       C  0.91232095  0.72154276  0.48348780    -0.25890
C2713       C  0.90775258  0.73708993  0.46107338    -0.15130
C2714       C  0.91717861  0.76304373  0.46057709     0.37200
N2715       N  0.91309302  0.77944565  0.43805300    -0.89380
H2716       H  0.94100098  0.79160785  0.48013997     0.18310
H2717       H  0.90496353  0.70164779  0.48413264     0.18300
N2718       N  0.93302464  0.71327884  0.52599452    -0.88410
H2719       H  0.90377268  0.79650278  0.44437420     0.35680
H2720       H  0.93120725  0.78473914  0.43046345     0.40780
H2721       H  0.94432821  0.72231314  0.54050978     0.40400
H2722       H  0.94370227  0.69740410  0.51883091     0.35290
C2723       C  0.23732823  0.83000892  0.74940008    -0.26440
C2724       C  0.24245032  0.83242306  0.72248493    -0.14520
C2725       C  0.26228969  0.81727414  0.71078066     0.36110
C2726       C  0.27707929  0.80029866  0.72653136    -0.25890
C2727       C  0.27229012  0.79835335  0.75357909    -0.15130
C2728       C  0.25217831  0.81322024  0.76516767     0.37200
N2729       N  0.24616917  0.81028019  0.79269411    -0.89380
H2730       H  0.22191504  0.84150929  0.75814250     0.18310
H2731       H  0.29227235  0.78853778  0.71776808     0.18300
N2732       N  0.26718173  0.81916725  0.68294786    -0.88410
H2733       H  0.23047023  0.82212011  0.79794892     0.35680
H2734       H  0.26201556  0.81676125  0.80372869     0.40780
H2735       H  0.25066273  0.81231449  0.67308904     0.40400
H2736       H  0.28247527  0.80687193  0.67750844     0.35290
C2737       C  0.14459691  0.87714786  0.66426089    -0.26440
C2738       C  0.15989251  0.85677409  0.67492036    -0.14520
C2739       C  0.15001436  0.83088482  0.67349496     0.36110
C2740       C  0.12743121  0.82583696  0.65888590    -0.25890
C2741       C  0.11467760  0.84571029  0.64519267    -0.15130
C2742       C  0.12253005  0.87195805  0.64889998     0.37200
N2743       N  0.10978205  0.89363915  0.63628575    -0.89380
H2744       H  0.15055669  0.89737256  0.66657885     0.18310
H2745       H  0.12017161  0.80599402  0.65733468     0.18300
N2746       N  0.16322836  0.80948022  0.68578326    -0.88410
H2747       H  0.10181344  0.90538373  0.65109416     0.35680
H2748       H  0.09445792  0.88758055  0.62426829     0.40780
H2749       H  0.17988079  0.80567038  0.67469822     0.40400
H2750       H  0.15160370  0.79270243  0.68561341     0.35290
C2751       C  0.23000492  0.93468373  0.66712041    -0.26440
C2752       C  0.24013864  0.90955162  0.66323309    -0.14520
C2753       C  0.26083872  0.90580284  0.64554788     0.36110
C2754       C  0.27101693  0.92728038  0.63217153    -0.25890
C2755       C  0.26070851  0.95260144  0.63560481    -0.15130
C2756       C  0.23981002  0.95627885  0.65332910     0.37200
N2757       N  0.22814331  0.98160752  0.65688433    -0.89380
H2758       H  0.21385017  0.93729246  0.68052856     0.18310
H2759       H  0.28700135  0.92393683  0.61873492     0.18300
N2760       N  0.27114316  0.88035370  0.63988023    -0.88410
H2761       H  0.21362346  0.98089391  0.67124058     0.35680
H2762       H  0.21890601  0.98651690  0.63919491     0.40780
H2763       H  0.25595768  0.86817624  0.63371024     0.40400
H2764       H  0.27930953  0.87261609  0.65702326     0.35290
C2765       C  0.22830165  0.84129010  0.38289363    -0.26440
C2766       C  0.23794680  0.84065536  0.40872162    -0.14520
C2767       C  0.26107386  0.82670858  0.41399677     0.36110
C2768       C  0.27407255  0.81394735  0.39342448    -0.25890
C2769       C  0.26453458  0.81470470  0.36750387    -0.15130
C2770       C  0.24131132  0.82869844  0.36218621     0.37200
N2771       N  0.23072815  0.83129131  0.33604464    -0.89380
H2772       H  0.21077460  0.85222853  0.37865180     0.18310
H2773       H  0.29173060  0.80327845  0.39771092     0.18300
N2774       N  0.27145820  0.82470420  0.44013975    -0.88410
H2775       H  0.21259102  0.82208694  0.33582668     0.35680
H2776       H  0.24210158  0.82201104  0.32185896     0.40780
H2777       H  0.25711850  0.81688352  0.45239344     0.40400
H2778       H  0.27621941  0.84343043  0.44692339     0.35290
C2779       C  0.16676951  0.83843948  0.49420306    -0.26440
C2780       C  0.16350312  0.85390201  0.47176602    -0.14520
C2781       C  0.13871224  0.86382210  0.46564432     0.36110
C2782       C  0.11766035  0.85844538  0.48261135    -0.25890
C2783       C  0.12107460  0.84378092  0.50590082    -0.15130
C2784       C  0.14605111  0.83326501  0.51123569     0.37200
N2785       N  0.15076864  0.81734950  0.53399007    -0.89380
H2786       H  0.18590970  0.83108990  0.49911824     0.18310
H2787       H  0.09866816  0.86619275  0.47785640     0.18300
N2788       N  0.13509595  0.87945120  0.44238638    -0.88410
H2789       H  0.16526449  0.82632568  0.54531228     0.35680
H2790       H  0.15771775  0.79918186  0.52762515     0.40780
H2791       H  0.14570182  0.89676210  0.44484700     0.40400
H2792       H  0.11563875  0.88491249  0.44044868     0.35290
C2793       C  0.25568737  0.90756177  0.49286879    -0.26440
C2794       C  0.23761279  0.91435752  0.47344692    -0.14520
C2795       C  0.23078444  0.94088152  0.46991707     0.36110
C2796       C  0.24199704  0.95991965  0.48627351    -0.25890
C2797       C  0.25976538  0.95328075  0.50635005    -0.15130
C2798       C  0.26658816  0.92652883  0.50965022     0.37200
N2799       N  0.28430875  0.91846534  0.53002029    -0.89380
H2800       H  0.26050577  0.88708474  0.49564325     0.18310
H2801       H  0.23644568  0.98015089  0.48324686     0.18300
N2802       N  0.21241509  0.94922108  0.45024892    -0.88410
H2803       H  0.28851960  0.89850115  0.52839498     0.35680
H2804       H  0.27482572  0.92081679  0.54807547     0.40780
H2805       H  0.20563090  0.93354260  0.43893680     0.40400
H2806       H  0.22219810  0.96163940  0.43723417     0.35290
C2807       C  0.92347410  0.64949303  0.84093230    -0.26440
C2808       C  0.90048557  0.63769727  0.84942574    -0.14520
C2809       C  0.89634991  0.61078406  0.84540918     0.36110
C2810       C  0.91599289  0.59560075  0.83435289    -0.25890
C2811       C  0.93989608  0.60689867  0.82756912    -0.15130
C2812       C  0.94337630  0.63432090  0.82995301     0.37200
N2813       N  0.96714478  0.64656460  0.82167679    -0.89380
H2814       H  0.92631039  0.67032100  0.84399031     0.18310
H2815       H  0.91289421  0.57470297  0.83217793     0.18300
N2816       N  0.87243639  0.59877031  0.85327778    -0.88410
H2817       H  0.96648470  0.66678044  0.82493719     0.35680
H2818       H  0.96872477  0.64393496  0.80131739     0.40780
H2819       H  0.86413832  0.58987548  0.83669285     0.40400
H2820       H  0.87669804  0.58410416  0.86698066     0.35290
C2821       C  0.84721353  0.61497971  0.92842142    -0.26440
C2822       C  0.85081994  0.64212965  0.93085843    -0.14520
C2823       C  0.84641730  0.65427631  0.95541495     0.36110
C2824       C  0.83832327  0.63886413  0.97696758    -0.25890
C2825       C  0.83457388  0.61162887  0.97432879    -0.15130
C2826       C  0.83941375  0.59968581  0.94959738     0.37200
N2827       N  0.83730535  0.57199164  0.94529587    -0.89380
H2828       H  0.85031139  0.60540415  0.90959579     0.18310
H2829       H  0.83463317  0.64819321  0.99579073     0.18300
N2830       N  0.85037163  0.68198503  0.95842920    -0.88410
H2831       H  0.81788085  0.56630044  0.94671281     0.35680
H2832       H  0.84842107  0.56221140  0.95945523     0.40780
H2833       H  0.87008177  0.68577547  0.95536213     0.40400
H2834       H  0.84624114  0.68782356  0.97773764     0.35290
C2835       C  0.82342113  0.35646124  0.87139106    -0.26440
C2836       C  0.82423483  0.38188929  0.86104198    -0.14520
C2837       C  0.80911074  0.38803288  0.83848778     0.36110
C2838       C  0.79442238  0.36825424  0.82635526    -0.25890
C2839       C  0.79407397  0.34271319  0.83641111    -0.15130
C2840       C  0.80866503  0.33673548  0.85916554     0.37200
N2841       N  0.80878821  0.31048872  0.86941985    -0.89380
H2842       H  0.83492403  0.35184959  0.88868466     0.18310
H2843       H  0.78328049  0.37284906  0.80884702     0.18300
N2844       N  0.80801519  0.41394978  0.82743261    -0.88410
H2845       H  0.82035399  0.30936663  0.88634225     0.35680
H2846       H  0.81741799  0.29839642  0.85528788     0.40780
H2847       H  0.81871605  0.42739614  0.83851184     0.40400
H2848       H  0.78873173  0.42021208  0.82844752     0.35290
C2849       C  0.89668182  0.45375626  0.83341584    -0.26440
C2850       C  0.90119504  0.44200381  0.85795606    -0.14520
C2851       C  0.92577292  0.44447486  0.86984110     0.36110
C2852       C  0.94495110  0.45974445  0.85780335    -0.25890
C2853       C  0.94013143  0.47289544  0.83395512    -0.15130
C2854       C  0.91578432  0.46932890  0.82129348     0.37200
N2855       N  0.91046708  0.48123437  0.79618901    -0.89380
H2856       H  0.87774526  0.45180323  0.82426848     0.18310
H2857       H  0.96356476  0.46175625  0.86759587     0.18300
N2858       N  0.93126623  0.43154621  0.89427473    -0.88410
H2859       H  0.89304048  0.47411160  0.78834177     0.35680
H2860       H  0.90755892  0.50122686  0.79947473     0.40780
H2861       H  0.94712589  0.41913951  0.89134892     0.40400
H2862       H  0.93666394  0.44576604  0.90810758     0.35290
C2863       C  0.86213444  0.44778916  0.95537496    -0.26440
C2864       C  0.84336131  0.44346147  0.93567001    -0.14520
C2865       C  0.81872995  0.45519812  0.93810417     0.36110
C2866       C  0.81381548  0.47169318  0.95960536    -0.25890
C2867       C  0.83289788  0.47701212  0.97873091    -0.15130
C2868       C  0.85739810  0.46459587  0.97670895     0.37200
N2869       N  0.87856353  0.46991837  0.99444323    -0.89380
H2870       H  0.88119471  0.43904458  0.95342531     0.18310
H2871       H  0.79498707  0.48094854  0.96115831     0.18300
N2872       N  0.79914102  0.45127624  0.91822491    -0.88410
H2873       H  0.88126453  0.45333519  0.00619008     0.35680
H2874       H  0.87488617  0.48578080  0.00681575     0.40780
H2875       H  0.80575899  0.45994055  0.90081866     0.40400
H2876       H  0.78196356  0.46090471  0.92331291     0.35290
C2877       C  0.84237923  0.95592857  0.69659754    -0.26440
C2878       C  0.83032467  0.93160974  0.69219481    -0.14520
C2879       C  0.80822146  0.93008365  0.67586074     0.36110
C2880       C  0.79970410  0.95261726  0.66283241    -0.25890
C2881       C  0.81279571  0.97653365  0.66573619    -0.15130
C2882       C  0.83374432  0.97857646  0.68364598     0.37200
N2883       N  0.84770240  0.00265208  0.68778602    -0.89380
H2884       H  0.85943776  0.95702446  0.70909655     0.18310
H2885       H  0.78389207  0.95111373  0.64875614     0.18300
N2886       N  0.79564082  0.90533569  0.67110753    -0.88410
H2887       H  0.84580679  0.00762296  0.70769617     0.35680
H2888       H  0.83947031  0.01803187  0.67714273     0.40780
H2889       H  0.80867953  0.89338904  0.66089655     0.40400
H2890       H  0.77949521  0.90771545  0.65882148     0.35290
C2891       C  0.92097542  0.88470105  0.67175665    -0.26440
C2892       C  0.90000396  0.86740581  0.67574541    -0.14520
C2893       C  0.89924703  0.84392035  0.66118171     0.36110
C2894       C  0.91929134  0.83804709  0.64359090    -0.25890
C2895       C  0.94014746  0.85511425  0.63933139    -0.15130
C2896       C  0.94072281  0.87922644  0.65336481     0.37200
N2897       N  0.96020030  0.89897330  0.64895917    -0.89380
H2898       H  0.92162175  0.90309213  0.68243856     0.18310
H2899       H  0.91872840  0.81975835  0.63319253     0.18300
N2900       N  0.87768838  0.82631296  0.66341464    -0.88410
H2901       H  0.95060366  0.91618677  0.64355212     0.35680
H2902       H  0.97180795  0.89439864  0.63281148     0.40780
H2903       H  0.88474091  0.80801990  0.66924685     0.40400
H2904       H  0.86910623  0.82433977  0.64482316     0.35290
C2905       C  0.81538564  0.84903280  0.39855480    -0.26440
C2906       C  0.83946599  0.85944500  0.39089435    -0.14520
C2907       C  0.84927295  0.85352912  0.36566037     0.36110
C2908       C  0.83481868  0.83745398  0.34855555    -0.25890
C2909       C  0.81084358  0.82679558  0.35613285    -0.15130
C2910       C  0.80113523  0.83240508  0.38156611     0.37200
N2911       N  0.77703642  0.82111056  0.39010313    -0.89380
H2912       H  0.80808821  0.85328980  0.41811498     0.18310
H2913       H  0.84208707  0.83355588  0.32893507     0.18300
N2914       N  0.87389761  0.86399423  0.35750023    -0.88410
H2915       H  0.77245151  0.82747359  0.40913217     0.35680
H2916       H  0.77955634  0.80085214  0.39117446     0.40780
H2917       H  0.87207346  0.88436449  0.35656499     0.40400
H2918       H  0.87848253  0.85762152  0.33847007     0.35290
C2919       C  0.85046432  0.92904213  0.48134225    -0.26440
C2920       C  0.85230201  0.93471505  0.45443688    -0.14520
C2921       C  0.84821621  0.96054775  0.44574608     0.36110
C2922       C  0.84184976  0.98015045  0.46440437    -0.25890
C2923       C  0.83946466  0.97423028  0.49151614    -0.15130
C2924       C  0.84457188  0.94830629  0.49982839     0.37200
N2925       N  0.84352157  0.94102917  0.52704274    -0.89380
H2926       H  0.85422357  0.90929506  0.48822690     0.18310
H2927       H  0.83806571  0.99989884  0.45765591     0.18300
N2928       N  0.85024770  0.96667298  0.41819716    -0.88410
H2929       H  0.86165523  0.93357163  0.53245792     0.35680
H2930       H  0.82978895  0.92607334  0.52912225     0.40780
H2931       H  0.86951408  0.96361253  0.41257515     0.40400
H2932       H  0.84632521  0.98650500  0.41501922     0.35290
C2933       C  0.90559727  0.84885997  0.47339772    -0.26440
C2934       C  0.91419435  0.86592685  0.45364442    -0.14520
C2935       C  0.93966244  0.87610092  0.45492012     0.36110
C2936       C  0.95543734  0.86985180  0.47650590    -0.25890
C2937       C  0.94660226  0.85359442  0.49708606    -0.15130
C2938       C  0.92124775  0.84281039  0.49525840     0.37200
N2939       N  0.91121280  0.82595875  0.51553005    -0.89380
H2940       H  0.88578816  0.84168238  0.47270316     0.18310
H2941       H  0.97484498  0.87803566  0.47710729     0.18300
N2942       N  0.94985806  0.89338808  0.43508235    -0.88410
H2943       H  0.89304691  0.81845082  0.51019449     0.35680
H2944       H  0.90817996  0.83750035  0.53228645     0.40780
H2945       H  0.93672359  0.89583227  0.41958006     0.40400
H2946       H  0.96612960  0.88431417  0.42687010     0.35290
C2947       C  0.38714981  0.93233052  0.47174074    -0.26440
C2948       C  0.36606211  0.92311972  0.45652168    -0.14520
C2949       C  0.34061437  0.92669353  0.46604634     0.36110
C2950       C  0.33668386  0.94137808  0.48897786    -0.25890
C2951       C  0.35755290  0.95329225  0.50206989    -0.15130
C2952       C  0.38308274  0.94797094  0.49415627     0.37200
N2953       N  0.40456951  0.95943593  0.50815389    -0.89380
H2954       H  0.40678755  0.92914225  0.46484889     0.18310
H2955       H  0.31702434  0.94560136  0.49509867     0.18300
N2956       N  0.31858345  0.91758858  0.45136006    -0.88410
H2957       H  0.42213731  0.95379603  0.49958733     0.35680
H2958       H  0.40448564  0.95178268  0.52726572     0.40780
H2959       H  0.30702041  0.93373138  0.44663325     0.40400
H2960       H  0.30776606  0.90521275  0.46354563     0.35290
C2961       C  0.42654731  0.93729358  0.35732586    -0.26440
C2962       C  0.40561968  0.94737489  0.37158571    -0.14520
C2963       C  0.40274910  0.97474768  0.37411555     0.36110
C2964       C  0.42157467  0.99153272  0.36355796    -0.25890
C2965       C  0.44337501  0.98139968  0.35065525    -0.15130
C2966       C  0.44546268  0.95391270  0.34693637     0.37200
N2967       N  0.46602300  0.94232383  0.33197216    -0.89380
H2968       H  0.42874626  0.91629355  0.35509879     0.18310
H2969       H  0.41939598  0.01252139  0.36590836     0.18300
N2970       N  0.38074543  0.98551010  0.38749738    -0.88410
H2971       H  0.48356849  0.94548419  0.34176175     0.35680
H2972       H  0.46668994  0.95120054  0.31341744     0.40780
H2973       H  0.37095238  0.99779317  0.37435761     0.40400
H2974       H  0.38752325  0.99698029  0.40317293     0.35290
C2975       C  0.32555238  0.87807011  0.35720640    -0.26440
C2976       C  0.34503491  0.87061652  0.37507977    -0.14520
C2977       C  0.34989124  0.84376400  0.37932068     0.36110
C2978       C  0.33506187  0.82504127  0.36594401    -0.25890
C2979       C  0.31540290  0.83244618  0.34828728    -0.15130
C2980       C  0.31063401  0.85932330  0.34371967     0.37200
N2981       N  0.29093063  0.86829701  0.32580137    -0.89380
H2982       H  0.32183180  0.89868052  0.35380487     0.18310
H2983       H  0.33900085  0.80443965  0.36919251     0.18300
N2984       N  0.37025763  0.83498449  0.39641065    -0.88410
H2985       H  0.30025040  0.87815912  0.31043804     0.35680
H2986       H  0.28085070  0.85271481  0.31725528     0.40780
H2987       H  0.36647996  0.84153922  0.41553060     0.40400
H2988       H  0.38772587  0.84327015  0.39005570     0.35290
C2989       C  0.93213487  0.31981282  0.45168358    -0.26440
C2990       C  0.91174568  0.33733143  0.45588367    -0.14520
C2991       C  0.90435089  0.34381254  0.48187009     0.36110
C2992       C  0.91861034  0.33354917  0.50327603    -0.25890
C2993       C  0.94066458  0.31809309  0.49879474    -0.15130
C2994       C  0.94700616  0.31051140  0.47277256     0.37200
N2995       N  0.96963213  0.29480208  0.46774501    -0.89380
H2996       H  0.93780795  0.31511048  0.43165522     0.18310
H2997       H  0.91383622  0.33934109  0.52324673     0.18300
N2998       N  0.88302685  0.36136254  0.48632736    -0.88410
H2999       H  0.97183608  0.29138996  0.44754100     0.35680
H3000       H  0.96677864  0.27654704  0.47648228     0.40780
H3001       H  0.88826152  0.37973356  0.47896286     0.40400
H3002       H  0.87990483  0.36383179  0.50654421     0.35290
C3003       C  0.95546166  0.40988340  0.40265798    -0.26440
C3004       C  0.92887859  0.41134786  0.39647948    -0.14520
C3005       C  0.91921685  0.43446021  0.38490948     0.36110
C3006       C  0.93616580  0.45551348  0.37972795    -0.25890
C3007       C  0.96279142  0.45384081  0.38567471    -0.15130
C3008       C  0.97243917  0.43081138  0.39752794     0.37200
N3009       N  0.99945811  0.42877791  0.40440842    -0.89380
H3010       H  0.96312093  0.39213132  0.41137001     0.18310
H3011       H  0.92857468  0.47298530  0.37039426     0.18300
N3012       N  0.89220572  0.43676964  0.37868091    -0.88410
H3013       H  0.00344780  0.41053273  0.41281740     0.35680
H3014       H  0.00329910  0.44281228  0.41894655     0.40780
H3015       H  0.89053672  0.44047972  0.35847828     0.40400
H3016       H  0.88486093  0.45296906  0.38883183     0.35290
C3017       C  0.87748969  0.31884404  0.35393607    -0.26440
C3018       C  0.86716987  0.33964692  0.36866996    -0.14520
C3019       C  0.84108872  0.34689233  0.36503026     0.36110
C3020       C  0.82561933  0.33281379  0.34707828    -0.25890
C3021       C  0.83563633  0.31157090  0.33270008    -0.15130
C3022       C  0.86214372  0.30485544  0.33578413     0.37200
N3023       N  0.87413806  0.28425943  0.32084742    -0.89380
H3024       H  0.89762052  0.31334938  0.35668946     0.18310
H3025       H  0.80529928  0.33779536  0.34498289     0.18300
N3026       N  0.83031497  0.36818699  0.37998237    -0.88410
H3027       H  0.87921820  0.26937486  0.33400849     0.35680
H3028       H  0.86130987  0.27619525  0.30712093     0.40780
H3029       H  0.83042550  0.36271208  0.39984072     0.40400
H3030       H  0.81089616  0.37119584  0.37479887     0.35290
C3031       C  0.40086505  0.36904131  0.99356329    -0.26440
C3032       C  0.40862734  0.37134047  0.96712739    -0.14520
C3033       C  0.43487954  0.36728283  0.96042715     0.36110
C3034       C  0.45256208  0.36096325  0.98034356    -0.25890
C3035       C  0.44493134  0.35876495  0.00692288    -0.15130
C3036       C  0.41870933  0.36364809  0.01368377     0.37200
N3037       N  0.40962198  0.36433532  0.04051457    -0.89380
H3038       H  0.38085504  0.37299464  0.99881047     0.18310
H3039       H  0.47248731  0.35711917  0.97474484     0.18300
N3040       N  0.44455953  0.37012155  0.93399469    -0.88410
H3041       H  0.40017960  0.38224029  0.04331506     0.35680
H3042       H  0.42506543  0.36501688  0.05380173     0.40780
H3043       H  0.43010644  0.37571446  0.92075741     0.40400
H3044       H  0.45116447  0.35176023  0.92782239     0.35290
C3045       C  0.32400094  0.44628273  0.95098869    -0.26440
C3046       C  0.35098250  0.44491107  0.94786838    -0.14520
C3047       C  0.36671845  0.46476977  0.95910624     0.36110
C3048       C  0.35567350  0.48320331  0.97622870    -0.25890
C3049       C  0.32899920  0.48289769  0.98113993    -0.15130
C3050       C  0.31284256  0.46541109  0.96720899     0.37200
N3051       N  0.28526320  0.46623449  0.97076982    -0.89380
H3052       H  0.31168268  0.43133997  0.94234121     0.18310
H3053       H  0.36800650  0.49733744  0.98617973     0.18300
N3054       N  0.39400830  0.46572280  0.95379770    -0.88410
H3055       H  0.27630367  0.45128680  0.95995391     0.35680
H3056       H  0.27892143  0.48381988  0.96248548     0.40780
H3057       H  0.39819957  0.48394293  0.94542811     0.40400
H3058       H  0.40394242  0.46455998  0.97176074     0.35290
C3059       C  0.33492893  0.34068233  0.89803828    -0.26440
C3060       C  0.34682290  0.36433022  0.89071690    -0.14520
C3061       C  0.34607860  0.37205548  0.86396251     0.36110
C3062       C  0.33295850  0.35646983  0.84549317    -0.25890
C3063       C  0.32063374  0.33304347  0.85288356    -0.15130
C3064       C  0.32192629  0.32499243  0.87946247     0.37200
N3065       N  0.31031363  0.30093418  0.88781772    -0.89380
H3066       H  0.33555791  0.33441627  0.91844064     0.18310
H3067       H  0.33256765  0.36257007  0.82502965     0.18300
N3068       N  0.35935994  0.39494908  0.85475114    -0.88410
H3069       H  0.29756209  0.30506272  0.90324588     0.35680
H3070       H  0.32502602  0.28925512  0.89574655     0.40780
H3071       H  0.37884831  0.39367726  0.86038235     0.40400
H3072       H  0.35121575  0.41150803  0.86349155     0.35290
C3073       C  0.79153090  0.81193450  0.73865950    -0.26440
C3074       C  0.79520048  0.81013693  0.76599550    -0.14520
C3075       C  0.81464608  0.82579907  0.77831073     0.36110
C3076       C  0.82969976  0.84275968  0.76297474    -0.25890
C3077       C  0.82583151  0.84470986  0.73579157    -0.15130
C3078       C  0.80663818  0.82907921  0.72349034     0.37200
N3079       N  0.80206016  0.83044104  0.69566660    -0.89380
H3080       H  0.77673703  0.80010137  0.72915193     0.18310
H3081       H  0.84436064  0.85480508  0.77244453     0.18300
N3082       N  0.81997481  0.82484869  0.80617366    -0.88410
H3083       H  0.81937315  0.82593102  0.68596401     0.35680
H3084       H  0.79694332  0.84966507  0.69091235     0.40780
H3085       H  0.80810097  0.81156052  0.81600460     0.40400
H3086       H  0.81595908  0.84331450  0.81408533     0.35290
C3087       C  0.82399403  0.74367990  0.82997752    -0.26440
C3088       C  0.79689272  0.74159873  0.83354720    -0.14520
C3089       C  0.78942885  0.72638237  0.85575089     0.36110
C3090       C  0.80566173  0.70623762  0.86448119    -0.25890
C3091       C  0.83202708  0.70602852  0.85807195    -0.15130
C3092       C  0.84156229  0.72654983  0.84203292     0.37200
N3093       N  0.86873617  0.73191491  0.83916295    -0.89380
H3094       H  0.83197243  0.75983276  0.81911101     0.18310
H3095       H  0.79821409  0.69284933  0.87917658     0.18300
N3096       N  0.77280109  0.73720744  0.87539660    -0.88410
H3097       H  0.87754106  0.71724021  0.82806941     0.35680
H3098       H  0.87726244  0.73273528  0.85787162     0.40780
H3099       H  0.76270998  0.72199636  0.88465504     0.40400
H3100       H  0.78439336  0.74624124  0.88973345     0.35290
C3101       C  0.69675143  0.80182943  0.82204923    -0.26440
C3102       C  0.72317399  0.80520538  0.82762232    -0.14520
C3103       C  0.73103616  0.82413304  0.84659444     0.36110
C3104       C  0.71221327  0.83873997  0.85978475    -0.25890
C3105       C  0.68581039  0.83476994  0.85489750    -0.15130
C3106       C  0.67788780  0.81645639  0.83542028     0.37200
N3107       N  0.65105811  0.81212617  0.82879241    -0.89380
H3108       H  0.69078519  0.78766553  0.80728543     0.18310
H3109       H  0.71824260  0.85265328  0.87477934     0.18300
N3110       N  0.75777382  0.82840397  0.85372464    -0.88410
H3111       H  0.64863776  0.81715289  0.80895851     0.35680
H3112       H  0.63878692  0.82445364  0.83942474     0.40780
H3113       H  0.77034271  0.81632427  0.84324032     0.40400
H3114       H  0.75990436  0.82330036  0.87356896     0.35290
C3115       C  0.69061126  0.94462244  0.66923110    -0.26440
C3116       C  0.70545318  0.93889194  0.69176291    -0.14520
C3117       C  0.72916129  0.95195725  0.69579923     0.36110
C3118       C  0.73740172  0.97083488  0.67751484    -0.25890
C3119       C  0.72265988  0.97638854  0.65483118    -0.15130
C3120       C  0.69893149  0.96311610  0.65067852     0.37200
N3121       N  0.68275020  0.96928659  0.62839206    -0.89380
H3122       H  0.67218398  0.93474686  0.66628004     0.18310
H3123       H  0.75553947  0.98104215  0.68096519     0.18300
N3124       N  0.74447824  0.94671509  0.71877523    -0.88410
H3125       H  0.66465265  0.96015279  0.63012071     0.35680
H3126       H  0.69136542  0.96111721  0.61167110     0.40780
H3127       H  0.74687815  0.96426866  0.72914364     0.40400
H3128       H  0.76278501  0.94044078  0.71258485     0.35290
C3129       C  0.61699920  0.91168595  0.76880696    -0.26440
C3130       C  0.62743219  0.91796332  0.74396073    -0.14520
C3131       C  0.61281955  0.93512020  0.72768956     0.36110
C3132       C  0.59411634  0.95144442  0.73904477    -0.25890
C3133       C  0.58699796  0.94837141  0.76543929    -0.15130
C3134       C  0.59570749  0.92579764  0.77889497     0.37200
N3135       N  0.58344270  0.91745623  0.80276701    -0.89380
H3136       H  0.62592742  0.89691605  0.78108440     0.18310
H3137       H  0.58539592  0.96680359  0.72726916     0.18300
N3138       N  0.61704997  0.93621926  0.69977262    -0.88410
H3139       H  0.57521859  0.89905752  0.79918518     0.35680
H3140       H  0.59769060  0.91473486  0.81709400     0.40780
H3141       H  0.59967077  0.93109989  0.69039900     0.40400
H3142       H  0.62128372  0.95559266  0.69463215     0.35290
C3143       C  0.72958030  0.86897896  0.76978846    -0.26440
C3144       C  0.70900569  0.86187281  0.75299087    -0.14520
C3145       C  0.70439000  0.83504654  0.74796608     0.36110
C3146       C  0.72006965  0.81606076  0.76004544    -0.25890
C3147       C  0.74039013  0.82318768  0.77717528    -0.15130
C3148       C  0.74510369  0.84991689  0.78204464     0.37200
N3149       N  0.76532925  0.85780419  0.79971410    -0.89380
H3150       H  0.73346132  0.88951192  0.77360839     0.18310
H3151       H  0.71618504  0.79551251  0.75631827     0.18300
N3152       N  0.68432725  0.82659192  0.73030136    -0.88410
H3153       H  0.75699045  0.86896601  0.81476380     0.35680
H3154       H  0.77808289  0.86993192  0.78933808     0.40780
H3155       H  0.68750071  0.83531153  0.71194627     0.40400
H3156       H  0.66649530  0.83307107  0.73755181     0.35290
C3157       C  0.89915005  0.63006487  0.73292597    -0.26440
C3158       C  0.90795261  0.65598046  0.73528016    -0.14520
C3159       C  0.93376190  0.66077634  0.74343831     0.36110
C3160       C  0.95058673  0.63970609  0.74716268    -0.25890
C3161       C  0.94233439  0.61367165  0.74373612    -0.15130
C3162       C  0.91595238  0.60875327  0.73747616     0.37200
N3163       N  0.90661787  0.58238781  0.73425828    -0.89380
H3164       H  0.87947342  0.62648958  0.72621313     0.18310
H3165       H  0.97050145  0.64387665  0.75268554     0.18300
N3166       N  0.94375309  0.68681709  0.74742080    -0.88410
H3167       H  0.88745358  0.58239396  0.72743273     0.35680
H3168       H  0.90604770  0.57384336  0.75296464     0.40780
H3169       H  0.92923708  0.70097048  0.74584333     0.40400
H3170       H  0.95732386  0.69050705  0.73257887     0.35290
C3171       C  0.89630763  0.74223199  0.65032261    -0.26440
C3172       C  0.90094054  0.71656710  0.65935982    -0.14520
C3173       C  0.91909824  0.70141957  0.64468761     0.36110
C3174       C  0.93712924  0.71397746  0.62824656    -0.25890
C3175       C  0.93476647  0.74062630  0.62241387    -0.15130
C3176       C  0.91180296  0.75347013  0.63038797     0.37200
N3177       N  0.90421481  0.77763328  0.61832135    -0.89380
H3178       H  0.88106554  0.75398499  0.65880769     0.18310
H3179       H  0.95282351  0.70272039  0.61969574     0.18300
N3180       N  0.91884540  0.67335878  0.64555582    -0.88410
H3181       H  0.88645793  0.78392953  0.62592666     0.35680
H3182       H  0.90081617  0.77379966  0.59835058     0.40780
H3183       H  0.91509050  0.66645780  0.62650079     0.40400
H3184       H  0.93739658  0.66694597  0.65088744     0.35290
C3185       C  0.81554930  0.71763716  0.74285223    -0.26440
C3186       C  0.84102376  0.72648262  0.73898806    -0.14520
C3187       C  0.84925197  0.74941891  0.75215518     0.36110
C3188       C  0.83227537  0.76259086  0.76917329    -0.25890
C3189       C  0.80679554  0.75356606  0.77378295    -0.15130
C3190       C  0.79806385  0.73142700  0.75910497     0.37200
N3191       N  0.77145344  0.72295467  0.75931747    -0.89380
H3192       H  0.80894643  0.70022194  0.73257513     0.18310
H3193       H  0.83939609  0.77981015  0.77929208     0.18300
N3194       N  0.87505647  0.75943672  0.74907790    -0.88410
H3195       H  0.76488901  0.72283764  0.73979116     0.35680
H3196       H  0.75979882  0.73673690  0.76869481     0.40780
H3197       H  0.87797849  0.76377385  0.72916856     0.40400
H3198       H  0.88819388  0.74485672  0.75462662     0.35290
C3199       C  0.64209379  0.70792429  0.96395991    -0.26440
C3200       C  0.63321045  0.70285384  0.93836487    -0.14520
C3201       C  0.60673352  0.70685159  0.93236335     0.36110
C3202       C  0.58972544  0.71468474  0.95265586    -0.25890
C3203       C  0.59842636  0.71798306  0.97891430    -0.15130
C3204       C  0.62515625  0.71437203  0.98441801     0.37200
N3205       N  0.63528766  0.71710453  0.01071204    -0.89380
H3206       H  0.66258333  0.70577281  0.96824584     0.18310
H3207       H  0.56945296  0.71775211  0.94788262     0.18300
N3208       N  0.59640002  0.70279500  0.90633399    -0.88410
H3209       H  0.65557539  0.71655505  0.01071176     0.35680
H3210       H  0.62938429  0.70051155  0.02118448     0.40780
H3211       H  0.61086828  0.69701199  0.89318902     0.40400
H3212       H  0.58949365  0.72083742  0.89960134     0.35290
C3213       C  0.72361238  0.62716984  0.93385422    -0.26440
C3214       C  0.70285072  0.64289799  0.94254633    -0.14520
C3215       C  0.69556141  0.64109551  0.96947906     0.36110
C3216       C  0.70777210  0.62331421  0.98622257    -0.25890
C3217       C  0.72858122  0.60778842  0.97788800    -0.15130
C3218       C  0.73669495  0.60980420  0.95120381     0.37200
N3219       N  0.75857197  0.59502655  0.94191867    -0.89380
H3220       H  0.72971292  0.62841849  0.91347583     0.18310
H3221       H  0.70118595  0.62246948  0.00648586     0.18300
N3222       N  0.67657623  0.65822655  0.98071799    -0.88410
H3223       H  0.76309409  0.60018751  0.92251899     0.35680
H3224       H  0.75304317  0.57532544  0.94136322     0.40780
H3225       H  0.68531198  0.66882695  0.99601313     0.40400
H3226       H  0.66174428  0.64678483  0.98881269     0.35290
C3227       C  0.71643013  0.70701449  0.85275700    -0.26440
C3228       C  0.70625760  0.71728510  0.87623010    -0.14520
C3229       C  0.71020572  0.74401634  0.88190042     0.36110
C3230       C  0.72473930  0.75971106  0.86461153    -0.25890
C3231       C  0.73545870  0.74955724  0.84109962    -0.15130
C3232       C  0.73042202  0.72290882  0.83493251     0.37200
N3233       N  0.73960913  0.71200989  0.81062490    -0.89380
H3234       H  0.71309137  0.68655503  0.84813298     0.18310
H3235       H  0.72939968  0.77930480  0.87099112     0.18300
N3236       N  0.70068778  0.75505551  0.90598717    -0.88410
H3237       H  0.73585650  0.69189272  0.80981042     0.35680
H3238       H  0.72848877  0.72047270  0.79565460     0.40780
H3239       H  0.68857708  0.77076421  0.90120075     0.40400
H3240       H  0.71650380  0.76242691  0.91662445     0.35290
loop_ 
_geom_bond_atom_site_label_1 
_geom_bond_atom_site_label_2 
_geom_bond_distance 
_geom_bond_site_symmetry_2 
_ccdc_geom_bond_type 
C1            C2   1.400       .  A
C1            C6   1.399       .  A
C1         C3200   1.483       .  S
C2            C3   1.409       .  A
C2            H7   1.083       .  S
C3            C4   1.418       .  A
C3         C3228   1.493       .  S
C4            C5   1.416       .  A
C4            H8   1.083       .  S
C5            C6   1.404       .  A
C5         C3214   1.509       .  S
C6            H9   1.083       .  S
C10          C11   1.418       .  A
C10          C15   1.405       .  A
C10        C3186   1.491       .  S
C11          C12   1.424       .  A
C11          H16   1.080       .  S
C12          C13   1.405       .  A
C12        C3172   1.518       .  S
C13          C14   1.394       .  A
C13          H17   1.077       .  S
C14          C15   1.397       .  A
C14        C3158   1.477       .  S
C15          H18   1.084       .  S
C19          C20   1.417       .  A
C19          C24   1.406       .  A
C19        C3144   1.486       .  S
C20          C21   1.417       .  A
C20          H25   1.081       .  S
C21          C22   1.403       .  A
C21        C3130   1.506       .  S
C22          C23   1.392       .  A
C22          H26   1.080       .  S
C23          C24   1.398       .  A
C23        C3116   1.481       .  S
C24          H27   1.084       .  S
C28          C29   1.408       .  A
C28          C33   1.404       .  A
C28        C3147   1.497       .  S
C29          C30   1.425       .  A
C29        C3102   1.483       .  S
C30          C31   1.444       .  A
C30        C3231   1.517       .  S
C31          C32   1.446       .  A
C31        C3088   1.539       .  S
C32          C33   1.414       .  A
C32        C3189   1.517       .  S
C33        C3074   1.487       .  S
C34          C35   1.402       .  A
C34          C39   1.391       .  A
C34        C3032   1.473       .  S
C35          C36   1.408       .  A
C35          H40   1.084       .  S
C36          C37   1.410       .  A
C36        C3060   1.485       .  S
C37          C38   1.408       .  A
C37          H41   1.083       .  S
C38          C39   1.396       .  A
C38        C3046   1.484       .  S
C39          H42   1.084       .  S
C43          C44   1.409       .  A
C43          C48   1.404       .  A
C43        C3018   1.480       .  S
C44          C45   1.410       .  A
C44          H49   1.083       .  S
C45          C46   1.404       .  A
C45        C3004   1.492       .  S
C46          C47   1.400       .  A
C46          H50   1.085       .  S
C47          C48   1.401       .  A
C47        C2990   1.475       .  S
C48          H51   1.084       .  S
C52          C53   1.402       .  A
C52          C57   1.395       .  A
C52        C2962   1.476       .  S
C53          C54   1.405       .  A
C53          H58   1.084       .  S
C54          C55   1.407       .  A
C54        C2976   1.478       .  S
C55          C56   1.406       .  A
C55          H59   1.083       .  S
C56          C57   1.400       .  A
C56        C2948   1.485       .  S
C57          H60   1.084       .  S
C61          C62   1.395       .  A
C61          C66   1.410       .  A
C61        C2920   1.479       .  S
C62          C63   1.391       .  A
C62          H67   1.086       .  S
C63          C64   1.401       .  A
C63        C2934   1.474       .  S
C64          C65   1.409       .  A
C64          H68   1.084       .  S
C65          C66   1.414       .  A
C65        C2906   1.486       .  S
C66          H69   1.083       .  S
C70          C71   1.405       .  A
C70          C75   1.400       .  A
C70        C3077   1.476       .  S
C71          C72   1.411       .  A
C71          H76   1.083       .  S
C72          C73   1.403       .  A
C72        C2892   1.493       .  S
C73          C74   1.401       .  A
C73          H77   1.084       .  S
C74          C75   1.400       .  A
C74        C2878   1.474       .  S
C75          H78   1.084       .  S
C79          C80   1.400       .  A
C79          C84   1.403       .  A
C79        C2850   1.480       .  S
C80          C81   1.400       .  A
C80          H85   1.084       .  S
C81          C82   1.405       .  A
C81        C2864   1.483       .  S
C82          C83   1.404       .  A
C82          H86   1.084       .  S
C83          C84   1.405       .  A
C83        C2836   1.478       .  S
C84          H87   1.084       .  S
C88          C89   1.394       .  A
C88          C93   1.392       .  A
C88        C2808   1.462       .  S
C89          C90   1.403       .  A
C89          H94   1.081       .  S
C90          C91   1.418       .  A
C90        C3091   1.488       .  S
C91          C92   1.405       .  A
C91          H95   1.082       .  S
C92          C93   1.395       .  A
C92        C2822   1.484       .  S
C93          H96   1.085       .  S
C97          C98   1.398       .  A
C97         C102   1.408       .  A
C97        C2780   1.478       .  S
C98          C99   1.396       .  A
C98         H103   1.085       .  S
C99         C100   1.400       .  A
C99        C2794   1.472       .  S
C100        C101   1.405       .  A
C100        H104   1.084       .  S
C101        C102   1.412       .  A
C101       C2766   1.483       .  S
C102        H105   1.084       .  S
C106        C107   1.407       .  A
C106        C111   1.414       .  A
C106       C2738   1.504       .  S
C107        C108   1.396       .  A
C107        H112   1.083       .  S
C108        C109   1.392       .  A
C108       C2752   1.468       .  S
C109        C110   1.395       .  A
C109        H113   1.084       .  S
C110        C111   1.406       .  A
C110       C2724   1.473       .  S
C111        H114   1.079       .  S
O115       Zr127   2.453   1_655  S
O115        C117   1.288       .  A
O116       Zr153   2.400       .  S
O116        C117   1.281       .  A
C117       C2710   1.461       .  S
O118       Zr130   2.489       .  S
O118        C120   1.297       .  A
O119       Zr154   2.389       .  S
O119        C120   1.280       .  A
C120       C2682   1.484       .  S
O121       Zr130   2.469   1_655  S
O121        C123   1.295       .  A
O122       Zr153   2.424       .  S
O122        C123   1.286       .  A
C123       C3175   1.494       .  S
O124       Zr127   2.440       .  S
O124        C126   1.287       .  A
O125       Zr154   2.422       .  S
O125        C126   1.285       .  A
C126       C2696   1.472       .  S
Zr127       O128   2.434       .  S
Zr127       O129   2.438       .  S
Zr127       O133   2.365       .  S
Zr127       O134   2.363       .  S
Zr127       O157   2.368       .  S
Zr127       O159   2.356       .  S
O128        H171   0.990       .  S
O129        H170   0.990       .  S
O129        H174   0.990       .  S
Zr130       O131   2.435       .  S
Zr130       O132   2.434       .  S
Zr130       O134   2.373       .  S
Zr130       O133   2.375       .  S
Zr130       O158   2.384       .  S
Zr130       O160   2.375       .  S
O131        H172   0.990       .  S
O131        H175   0.990       .  S
O132        H165   0.990       .  S
O133       Zr153   2.390   1_455  S
O134       Zr154   2.387       .  S
O134        H161   0.966       .  S
O135       Zr147   2.475       .  S
O135        C137   1.293       .  A
O136       Zr154   2.400       .  S
O136        C137   1.281       .  A
C137       C2783   1.499       .  S
O138       Zr150   2.438   1_655  S
O138        C140   1.286       .  A
O139       Zr153   2.440       .  S
O139        C140   1.290       .  A
C140       C2895   1.490       .  S
O141       Zr150   2.428       .  S
O141        C143   1.283       .  A
O142       Zr154   2.425       .  S
O142        C143   1.287       .  A
C143       C2741   1.468       .  S
O144       Zr147   2.443   1_655  S
O144        C146   1.289       .  A
O145       Zr153   2.430       .  S
O145        C146   1.287       .  A
C146       C2937   1.493       .  S
Zr147       O148   2.434       .  S
Zr147       O149   2.435       .  S
Zr147       O155   2.371       .  S
Zr147       O156   2.389       .  S
Zr147       O159   2.383       .  S
Zr147       O157   2.360       .  S
O148        H168   0.990       .  S
O148        H173   0.990       .  S
O149        H169   0.990       .  S
Zr150       O151   2.435       .  S
Zr150       O152   2.437       .  S
Zr150       O156   2.381       .  S
Zr150       O155   2.382       .  S
Zr150       O160   2.381       .  S
Zr150       O158   2.374       .  S
O151        H167   0.990       .  S
O152        H166   0.990       .  S
O152        H176   0.990       .  S
Zr153       O156   2.384   1_655  S
Zr153       O158   2.380   1_655  S
Zr153       O159   2.390   1_655  S
Zr154       O155   2.381       .  S
Zr154       O157   2.369       .  S
Zr154       O160   2.375       .  S
O155        H163   0.966       .  S
O158        H162   0.966   1_455  S
O159        H164   0.964   1_455  S
C177        C178   1.403       .  A
C177        C182   1.412       .  A
C177       C2668   1.477       .  S
C178        C179   1.398       .  A
C178        H183   1.084       .  S
C179        C180   1.392       .  A
C179       C2654   1.470       .  S
C180        C181   1.400       .  A
C180        H184   1.085       .  S
C181        C182   1.410       .  A
C181       C2640   1.488       .  S
C182        H185   1.083       .  S
C186        C187   1.409       .  A
C186        C191   1.406       .  A
C186       C2626   1.478       .  S
C187        C188   1.405       .  A
C187        H192   1.083       .  S
C188        C189   1.400       .  A
C188       C2612   1.482       .  S
C189        C190   1.393       .  A
C189        H193   1.086       .  S
C190        C191   1.401       .  A
C190       C2598   1.472       .  S
C191        H194   1.084       .  S
C195        C196   1.411       .  A
C195        C200   1.414       .  A
C195       C2573   1.502       .  S
C196        C197   1.412       .  A
C196       C2727   1.479       .  S
C197        C198   1.413       .  A
C197       C2629   1.492       .  S
C198        C199   1.415       .  A
C198       C2584   1.491       .  S
C199        C200   1.419       .  A
C199       C2671   1.487       .  S
C200       C2556   1.488       .  S
C201        C202   1.412       .  A
C201        C206   1.400       .  A
C201       C2570   1.485       .  S
C202        C203   1.421       .  A
C202        H207   1.074       .  S
C203        C204   1.406       .  A
C203       C2685   1.519       .  S
C204        C205   1.394       .  A
C204        H208   1.082       .  S
C205        C206   1.395       .  A
C205       C2545   1.467       .  S
C206        H209   1.084       .  S
O210       Zr222   2.432   1_655  S
O210        C212   1.286       .  A
O211       Zr248   2.401       .  S
O211        C212   1.283       .  A
C212       C2811   1.471       .  S
O213       Zr225   2.455       .  S
O213        C215   1.289       .  A
O214       Zr249   2.403       .  S
O214        C215   1.281       .  A
C215       C2542   1.469       .  S
O216       Zr225   2.454   1_655  S
O216        C218   1.291       .  A
O217       Zr248   2.415       .  S
O217        C218   1.283       .  A
C218       C3161   1.488       .  S
O219       Zr222   2.455       .  S
O219        C221   1.289       .  A
O220       Zr249   2.403       .  S
O220        C221   1.282       .  A
C221       C2517   1.473       .  S
Zr222       O223   2.434       .  S
Zr222       O224   2.434       .  S
Zr222       O228   2.368       .  S
Zr222       O229   2.362       .  S
Zr222       O252   2.370       .  S
Zr222       O254   2.377       .  S
O223        H266   0.990       .  S
O224        H265   0.990       .  S
O224        H269   0.990       .  S
Zr225       O226   2.439       .  S
Zr225       O227   2.434       .  S
Zr225       O229   2.382       .  S
Zr225       O228   2.363       .  S
Zr225       O253   2.377       .  S
Zr225       O255   2.376       .  S
O226        H267   0.990       .  S
O226        H270   0.990       .  S
O227        H260   0.990       .  S
O228       Zr248   2.368   1_455  S
O229       Zr249   2.379       .  S
O229        H256   0.964       .  S
O230       Zr242   2.454       .  S
O230        C232   1.289       .  A
O231       Zr249   2.406       .  S
O231        C232   1.284       .  A
C232       C2531   1.485       .  S
O233       Zr245   2.463   1_655  S
O233        C235   1.292       .  A
O234       Zr248   2.401       .  S
O234        C235   1.281       .  A
C235       C2489   1.473       .  S
O236       Zr245   2.479       .  S
O236        C238   1.295       .  A
O237       Zr249   2.391       .  S
O237        C238   1.279       .  A
C238       C2503   1.471       .  S
O239       Zr242   2.440   1_655  S
O239        C241   1.288       .  A
O240       Zr248   2.417       .  S
O240        C241   1.284       .  A
C241       C2853   1.487       .  S
Zr242       O243   2.436       .  S
Zr242       O244   2.434       .  S
Zr242       O250   2.362       .  S
Zr242       O251   2.371       .  S
Zr242       O254   2.373       .  S
Zr242       O252   2.376       .  S
O243        H263   0.990       .  S
O243        H268   0.990       .  S
O244        H264   0.990       .  S
Zr245       O246   2.434       .  S
Zr245       O247   2.433       .  S
Zr245       O251   2.374       .  S
Zr245       O250   2.367       .  S
Zr245       O255   2.379       .  S
Zr245       O253   2.384       .  S
O246        H262   0.990       .  S
O247        H261   0.990       .  S
O247        H271   0.990       .  S
Zr248       O251   2.373   1_655  S
Zr248       O253   2.389   1_655  S
Zr248       O254   2.387   1_655  S
Zr249       O250   2.382       .  S
Zr249       O252   2.379       .  S
Zr249       O255   2.385       .  S
O250        H258   0.963       .  S
O253        H257   0.966   1_455  S
O254        H259   0.966   1_455  S
C272        C273   1.395       .  A
C272        C277   1.403       .  A
C272       C2528   1.476       .  S
C273        C274   1.394       .  A
C273        H278   1.085       .  S
C274        C275   1.407       .  A
C274       C2472   1.479       .  S
C275        C276   1.412       .  A
C275        H279   1.084       .  S
C276        C277   1.407       .  A
C276       C2458   1.484       .  S
C277        H280   1.084       .  S
C281        C282   1.407       .  A
C281        C286   1.402       .  A
C281       C2514   1.485       .  S
C282        C283   1.407       .  A
C282        H287   1.084       .  S
C283        C284   1.402       .  A
C283       C2559   1.475       .  S
C284        C285   1.402       .  A
C284        H288   1.084       .  S
C285        C286   1.399       .  A
C285       C2444   1.480       .  S
C286        H289   1.084       .  S
C290        C291   1.401       .  A
C290        C295   1.398       .  A
C290       C2416   1.472       .  S
C291        C292   1.403       .  A
C291        H296   1.084       .  S
C292        C293   1.408       .  A
C292       C2587   1.479       .  S
C293        C294   1.408       .  A
C293        H297   1.084       .  S
C294        C295   1.400       .  A
C294       C2430   1.483       .  S
C295        H298   1.085       .  S
C299        C300   1.393       .  A
C299        C304   1.394       .  A
C299       C2388   1.469       .  S
C300        C301   1.400       .  A
C300        H305   1.084       .  S
C301        C302   1.407       .  A
C301       C3105   1.472       .  S
C302        C303   1.413       .  A
C302        H306   1.082       .  S
C303        C304   1.404       .  A
C303       C2402   1.498       .  S
C304        H307   1.081       .  S
C308        C309   1.408       .  A
C308        C313   1.408       .  A
C308       C2360   1.480       .  S
C309        C310   1.402       .  A
C309        H314   1.084       .  S
C310        C311   1.396       .  A
C310       C2699   1.472       .  S
C311        C312   1.396       .  A
C311        H315   1.085       .  S
C312        C313   1.403       .  A
C312       C2374   1.476       .  S
C313        H316   1.084       .  S
C317        C318   1.413       .  A
C317        C322   1.412       .  A
C317       C2346   1.494       .  S
C318        C319   1.414       .  A
C318       C2979   1.483       .  S
C319        C320   1.415       .  A
C319       C2769   1.493       .  S
C320        C321   1.415       .  A
C320       C2363   1.489       .  S
C321        C322   1.413       .  A
C321       C2318   1.490       .  S
C322       C2332   1.485       .  S
C323        C324   1.401       .  A
C323        C328   1.404       .  A
C323       C2335   1.479       .  S
C324        C325   1.405       .  A
C324        H329   1.084       .  S
C325        C326   1.404       .  A
C325       C2304   1.488       .  S
C326        C327   1.405       .  A
C326        H330   1.083       .  S
C327        C328   1.409       .  A
C327       C2290   1.492       .  S
C328        H331   1.083       .  S
O332       Zr344   2.454       .  S
O332        C334   1.290       .  A
O333       Zr370   2.399   1_556  S
O333        C334   1.280   1_556  A
C334       C3049   1.466   1_554  S
O335       Zr347   2.464       .  S
O335        C337   1.291       .  A
O336       Zr371   2.428       .  S
O336        C337   1.289       .  A
C337       C2262   1.499       .  S
O338       Zr347   2.466       .  S
O338        C340   1.291   1_554  A
O339       Zr370   2.391   1_556  S
O339        C340   1.280       .  A
C340       C2475   1.484       .  S
O341       Zr344   2.443       .  S
O341        C343   1.288       .  A
O342       Zr371   2.436       .  S
O342        C343   1.288       .  A
C343       C2276   1.475       .  S
Zr344       O345   2.433       .  S
Zr344       O346   2.435       .  S
Zr344       O350   2.371       .  S
Zr344       O351   2.372       .  S
Zr344       O374   2.376       .  S
Zr344       O376   2.366       .  S
O345        H388   0.990       .  S
O346        H387   0.990       .  S
O346        H391   0.990       .  S
Zr347       O348   2.434       .  S
Zr347       O349   2.434       .  S
Zr347       O351   2.376       .  S
Zr347       O350   2.375       .  S
Zr347       O375   2.376       .  S
Zr347       O377   2.385       .  S
O348        H389   0.989       .  S
O348        H392   0.989       .  S
O349        H382   0.990       .  S
O350       Zr370   2.364       .  S
O351       Zr371   2.386       .  S
O351        H378   0.964       .  S
O352       Zr364   2.443       .  S
O352        C354   1.287       .  A
O353       Zr371   2.428       .  S
O353        C354   1.286       .  A
C354       C2307   1.469       .  S
O355       Zr367   2.457       .  S
O355        C357   1.289   1_554  A
O356       Zr370   2.392   1_556  S
O356        C357   1.281       .  A
C357       C2447   1.480       .  S
O358       Zr367   2.445       .  S
O358        C360   1.288       .  A
O359       Zr371   2.428       .  S
O359        C360   1.288       .  A
C360       C2248   1.479       .  S
O361       Zr364   2.457       .  S
O361        C363   1.291       .  A
O362       Zr370   2.388   1_556  S
O362        C363   1.278   1_556  A
C363       C2657   1.462   1_554  S
Zr364       O365   2.437       .  S
Zr364       O366   2.434       .  S
Zr364       O372   2.371       .  S
Zr364       O373   2.365       .  S
Zr364       O376   2.367       .  S
Zr364       O374   2.380       .  S
O365        H385   0.990       .  S
O365        H390   0.990       .  S
O366        H386   0.990       .  S
Zr367       O368   2.434       .  S
Zr367       O369   2.434       .  S
Zr367       O373   2.367       .  S
Zr367       O372   2.375       .  S
Zr367       O377   2.384       .  S
Zr367       O375   2.375       .  S
O368        H384   0.990       .  S
O369        H383   0.990       .  S
O369        H393   0.990       .  S
Zr370       O373   2.367       .  S
Zr370       O375   2.378       .  S
Zr370       O376   2.376       .  S
Zr371       O372   2.388       .  S
Zr371       O374   2.388       .  S
Zr371       O377   2.391       .  S
O372        H380   0.965       .  S
O375        H379   0.966       .  S
O376        H381   0.966       .  S
O394       Zr406   2.467       .  S
O394        C396   1.292       .  A
O395       Zr432   2.411       .  S
O395        C396   1.285   1_455  A
C396       C3007   1.485       .  S
O397       Zr409   2.416       .  S
O397        C399   1.282       .  A
O398       Zr433   2.460       .  S
O398        C399   1.292   1_455  A
C399       C2167   1.502       .  S
O400       Zr409   2.417       .  S
O400        C402   1.283       .  A
O401       Zr432   2.424       .  S
O401        C402   1.284   1_455  A
C402       C2178   1.461       .  S
O403       Zr406   2.455       .  S
O403        C405   1.291       .  A
O404       Zr433   2.421       .  S
O404        C405   1.286   1_455  A
C405       C2237   1.497       .  S
Zr406       O407   2.434       .  S
Zr406       O408   2.433       .  S
Zr406       O412   2.363       .  S
Zr406       O413   2.376       .  S
Zr406       O436   2.384   1_655  S
Zr406       O438   2.381   1_655  S
O407        H450   0.990       .  S
O408        H449   0.990       .  S
O408        H453   0.990       .  S
Zr409       O410   2.435       .  S
Zr409       O411   2.435   1_655  S
Zr409       O413   2.360       .  S
Zr409       O412   2.358       .  S
Zr409       O437   2.358   1_655  S
Zr409       O439   2.371   1_655  S
O410        H451   0.990       .  S
O410        H454   0.990       .  S
O411        H444   0.990       .  S
O412       Zr432   2.369   1_655  S
O413       Zr433   2.390   1_655  S
O413        H440   0.965       .  S
O414       Zr426   2.455       .  S
O414        C416   1.289       .  A
O415       Zr433   2.423       .  S
O415        C416   1.287       .  A
C416       C2377   1.486       .  S
O417       Zr429   2.434       .  S
O417        C419   1.286       .  A
O418       Zr432   2.415       .  S
O418        C419   1.283       .  A
C419       C2209   1.462       .  S
O420       Zr429   2.431       .  S
O420        C422   1.288       .  A
O421       Zr433   2.445       .  S
O421        C422   1.289       .  A
C422       C2223   1.492       .  S
O423       Zr426   2.447       .  S
O423        C425   1.287       .  A
O424       Zr432   2.411       .  S
O424        C425   1.285       .  A
C425       C2192   1.491       .  S
Zr426       O427   2.439       .  S
Zr426       O428   2.434       .  S
Zr426       O434   2.369       .  S
Zr426       O435   2.372       .  S
Zr426       O438   2.374       .  S
Zr426       O436   2.378       .  S
O427        H447   0.990       .  S
O427        H452   0.990       .  S
O428        H448   0.990       .  S
Zr429       O430   2.434       .  S
Zr429       O431   2.434       .  S
Zr429       O435   2.366       .  S
Zr429       O434   2.364       .  S
Zr429       O439   2.369       .  S
Zr429       O437   2.363       .  S
O430        H446   0.990       .  S
O431        H445   0.990       .  S
O431        H455   0.990       .  S
Zr432       O435   2.371       .  S
Zr432       O437   2.384       .  S
Zr432       O438   2.395       .  S
Zr433       O434   2.391       .  S
Zr433       O436   2.403       .  S
Zr433       O439   2.390       .  S
O434        H442   0.963       .  S
O437        H441   0.966       .  S
O438        H443   0.966       .  S
C456        C457   1.398       .  A
C456        C461   1.410       .  A
C456       C2265   1.484       .  S
C457        C458   1.402       .  A
C457        H462   1.084       .  S
C458        C459   1.401       .  A
C458       C2206   1.484       .  S
C459        C460   1.403       .  A
C459        H463   1.084       .  S
C460        C461   1.412       .  A
C460       C2150   1.484       .  S
C461        H464   1.083       .  S
C465        C466   1.409       .  A
C465        C470   1.402       .  A
C465       C2136   1.484       .  S
C466        C467   1.407       .  A
C466        H471   1.084       .  S
C467        C468   1.401       .  A
C467       C2122   1.477       .  S
C468        C469   1.395       .  A
C468        H472   1.085       .  S
C469        C470   1.399       .  A
C469       C2181   1.467       .  S
C470        H473   1.084       .  S
C474        C475   1.406       .  A
C474        C479   1.411       .  A
C474       C2164   1.493       .  S
C475        C476   1.394       .  A
C475        H480   1.084       .  S
C476        C477   1.400       .  A
C476       C2108   1.482       .  S
C477        C478   1.405       .  A
C477        H481   1.084       .  S
C478        C479   1.413       .  A
C478       C2094   1.485       .  S
C479        H482   1.083       .  S
O483       Zr495   2.449       .  S
O483        C485   1.291   1_554  A
O484       Zr521   2.425   1_556  S
O484        C485   1.285       .  A
C485       C3217   1.499       .  S
O486       Zr498   2.448       .  S
O486        C488   1.289       .  A
O487       Zr522   2.427       .  S
O487        C488   1.287       .  A
C488       C2111   1.491       .  S
O489       Zr498   2.448       .  S
O489        C491   1.289   1_554  A
O490       Zr521   2.402   1_556  S
O490        C491   1.282       .  A
C491       C2825   1.482       .  S
O492       Zr495   2.434       .  S
O492        C494   1.287       .  A
O493       Zr522   2.437       .  S
O493        C494   1.288       .  A
C494       C2055   1.474       .  S
Zr495       O496   2.433       .  S
Zr495       O497   2.434       .  S
Zr495       O501   2.365       .  S
Zr495       O502   2.372       .  S
Zr495       O525   2.379       .  S
Zr495       O527   2.365       .  S
O496        H539   0.990       .  S
O497        H538   0.990       .  S
O497        H542   0.990       .  S
Zr498       O499   2.437       .  S
Zr498       O500   2.435       .  S
Zr498       O502   2.368       .  S
Zr498       O501   2.374       .  S
Zr498       O526   2.377       .  S
Zr498       O528   2.381       .  S
O499        H540   0.990       .  S
O499        H543   0.990       .  S
O500        H533   0.990       .  S
O501       Zr521   2.370       .  S
O502       Zr522   2.389       .  S
O502        H529   0.964       .  S
O503       Zr515   2.444       .  S
O503        C505   1.286       .  A
O504       Zr522   2.438       .  S
O504        C505   1.287       .  A
C505       C2066   1.473       .  S
O506       Zr518   2.451       .  S
O506        C508   1.289   1_554  A
O507       Zr521   2.407   1_556  S
O507        C508   1.284       .  A
C508       C2867   1.479       .  S
O509       Zr518   2.448       .  S
O509        C511   1.289       .  A
O510       Zr522   2.434       .  S
O510        C511   1.288       .  A
C511       C2139   1.490       .  S
O512       Zr515   2.430       .  S
O512        C514   1.286       .  A
O513       Zr521   2.415   1_556  S
O513        C514   1.283   1_556  A
C514       C2080   1.467   1_554  S
Zr515       O516   2.439       .  S
Zr515       O517   2.434       .  S
Zr515       O523   2.364       .  S
Zr515       O524   2.368       .  S
Zr515       O527   2.370       .  S
Zr515       O525   2.370       .  S
O516        H536   0.990       .  S
O516        H541   0.990       .  S
O517        H537   0.990       .  S
Zr518       O519   2.434       .  S
Zr518       O520   2.434       .  S
Zr518       O524   2.368       .  S
Zr518       O523   2.367       .  S
Zr518       O528   2.377       .  S
Zr518       O526   2.371       .  S
O519        H535   0.990       .  S
O520        H534   0.990       .  S
O520        H544   0.990       .  S
Zr521       O524   2.375       .  S
Zr521       O526   2.390       .  S
Zr521       O527   2.384       .  S
Zr522       O523   2.385       .  S
Zr522       O525   2.392       .  S
Zr522       O528   2.394       .  S
O523        H531   0.961       .  S
O526        H530   0.966       .  S
O527        H532   0.966       .  S
C545        C546   1.401       .  A
C545        C550   1.396       .  A
C545       C2024   1.474       .  S
C546        C547   1.404       .  A
C546        H551   1.084       .  S
C547        C548   1.404       .  A
C547       C2038   1.471       .  S
C548        C549   1.405       .  A
C548        H552   1.084       .  S
C549        C550   1.395       .  A
C549       C2010   1.480       .  S
C550        H553   1.084       .  S
C554        C555   1.396       .  A
C554        C559   1.405       .  A
C554       C2234   1.475       .  S
C555        C556   1.399       .  A
C555        H560   1.085       .  S
C556        C557   1.403       .  A
C556       C2713   1.481       .  S
C557        C558   1.405       .  A
C557        H561   1.084       .  S
C558        C559   1.408       .  A
C558       C1996   1.480       .  S
C559        H562   1.084       .  S
C563        C564   1.416       .  A
C563        C568   1.418       .  A
C563       C2097   1.495       .  S
C564        C565   1.415       .  A
C564       C1999   1.490       .  S
C565        C566   1.417       .  A
C565       C2909   1.499       .  S
C566        C567   1.419       .  A
C566       C2041   1.486       .  S
C567        C568   1.419       .  A
C567       C1971   1.498       .  S
C568       C1982   1.494       .  S
C569        C570   1.404       .  A
C569        C574   1.407       .  A
C569       C1985   1.482       .  S
C570        C571   1.402       .  A
C570        H575   1.084       .  S
C571        C572   1.400       .  A
C571       C2052   1.475       .  S
C572        C573   1.402       .  A
C572        H576   1.085       .  S
C573        C574   1.408       .  A
C573       C1954   1.482       .  S
C574        H577   1.084       .  S
O578       Zr590   2.440       .  S
O578        C580   1.288   1_554  A
O579       Zr616   2.402   1_556  S
O579        C580   1.281       .  A
C580       C2391   1.487       .  S
O581       Zr593   2.460       .  S
O581        C583   1.289       .  A
O582       Zr617   2.431       .  S
O582        C583   1.286       .  A
C583       C1957   1.478       .  S
O584       Zr593   2.451       .  S
O584        C586   1.289   1_554  A
O585       Zr616   2.420   1_556  S
O585        C586   1.285       .  A
C586       C3203   1.495       .  S
O587       Zr590   2.440       .  S
O587        C589   1.286       .  A
O588       Zr617   2.425       .  S
O588        C589   1.287       .  A
C589       C1926   1.486       .  S
Zr590       O591   2.434       .  S
Zr590       O592   2.434       .  S
Zr590       O596   2.368       .  S
Zr590       O597   2.361       .  S
Zr590       O620   2.374       .  S
Zr590       O622   2.365       .  S
O591        H634   0.990       .  S
O592        H633   0.990       .  S
O592        H637   0.990       .  S
Zr593       O594   2.437       .  S
Zr593       O595   2.434       .  S
Zr593       O597   2.364       .  S
Zr593       O596   2.371       .  S
Zr593       O621   2.376       .  S
Zr593       O623   2.378       .  S
O594        H635   0.990       .  S
O594        H638   0.990       .  S
O595        H628   0.990       .  S
O596       Zr616   2.372       .  S
O597       Zr617   2.379       .  S
O597        H624   0.960       .  S
O598       Zr610   2.457       .  S
O598        C600   1.291       .  A
O599       Zr617   2.415       .  S
O599        C600   1.284       .  A
C600       C1940   1.498       .  S
O601       Zr613   2.456       .  S
O601        C603   1.291       .  A
O602       Zr616   2.405   1_556  S
O602        C603   1.282   1_556  A
C603       C2643   1.494   1_554  S
O604       Zr613   2.447       .  S
O604        C606   1.288       .  A
O605       Zr617   2.432       .  S
O605        C606   1.287       .  A
C606       C2293   1.473       .  S
O607       Zr610   2.449       .  S
O607        C609   1.289   1_554  A
O608       Zr616   2.411   1_556  S
O608        C609   1.285       .  A
C609       C2419   1.495       .  S
Zr610       O611   2.437       .  S
Zr610       O612   2.434       .  S
Zr610       O618   2.367       .  S
Zr610       O619   2.371       .  S
Zr610       O622   2.377       .  S
Zr610       O620   2.377       .  S
O611        H631   0.990       .  S
O611        H636   0.990       .  S
O612        H632   0.990       .  S
Zr613       O614   2.433       .  S
Zr613       O615   2.433       .  S
Zr613       O619   2.366       .  S
Zr613       O618   2.374       .  S
Zr613       O623   2.380       .  S
Zr613       O621   2.371       .  S
O614        H630   0.990       .  S
O615        H629   0.990       .  S
O615        H639   0.990       .  S
Zr616       O619   2.373       .  S
Zr616       O621   2.389       .  S
Zr616       O622   2.388       .  S
Zr617       O618   2.385       .  S
Zr617       O620   2.390       .  S
Zr617       O623   2.391       .  S
O618        H626   0.964       .  S
O621        H625   0.966       .  S
O622        H627   0.966       .  S
C640        C641   1.400       .  A
C640        C645   1.394       .  A
C640       C1943   1.476       .  S
C641        C642   1.405       .  A
C641        H646   1.084       .  S
C642        C643   1.412       .  A
C642       C2349   1.487       .  S
C643        C644   1.416       .  A
C643        H647   1.082       .  S
C644        C645   1.405       .  A
C644       C1912   1.502       .  S
C645        H648   1.081       .  S
C649        C650   1.405       .  A
C649        C654   1.399       .  A
C649       C1929   1.484       .  S
C650        C651   1.407       .  A
C650        H655   1.084       .  S
C651        C652   1.412       .  A
C651       C1968   1.486       .  S
C652        C653   1.405       .  A
C652        H656   1.084       .  S
C653        C654   1.396       .  A
C653       C1898   1.477       .  S
C654        H657   1.085       .  S
C658        C659   1.404       .  A
C658        C663   1.403       .  A
C658       C1870   1.481       .  S
C659        C660   1.405       .  A
C659        H664   1.084       .  S
C660        C661   1.403       .  A
C660       C2069   1.483       .  S
C661        C662   1.403       .  A
C661        H665   1.084       .  S
C662        C663   1.407       .  A
C662       C1887   1.486       .  S
C663        H666   1.084       .  S
C667        C668   1.416       .  A
C667        C672   1.417       .  A
C667       C1859   1.498       .  S
C668        C669   1.415       .  A
C668       C3021   1.495       .  S
C669        C670   1.419       .  A
C669       C2125   1.486       .  S
C670        C671   1.415       .  A
C670       C1873   1.495       .  S
C671        C672   1.414       .  A
C671       C1828   1.496       .  S
C672       C1845   1.486       .  S
C673        C674   1.400       .  A
C673        C678   1.397       .  A
C673       C1814   1.469       .  S
C674        C675   1.403       .  A
C674        H679   1.084       .  S
C675        C676   1.405       .  A
C675       C1842   1.473       .  S
C676        C677   1.403       .  A
C676        H680   1.084       .  S
C677        C678   1.397       .  A
C677       C1800   1.474       .  S
C678        H681   1.085       .  S
O682       Zr694   2.456   1_565  S
O682        C684   1.291       .  A
O683       Zr720   2.427       .  S
O683        C684   1.285   1_545  A
C684       C1915   1.488       .  S
O685       Zr697   2.455   1_565  S
O685        C687   1.288       .  A
O686       Zr721   2.395       .  S
O686        C687   1.281   1_545  A
C687       C2027   1.478       .  S
O688       Zr697   2.417   1_565  S
O688        C690   1.281       .  A
O689       Zr720   2.432       .  S
O689        C690   1.288   1_545  A
C690       C2965   1.473       .  S
O691       Zr694   2.462   1_565  S
O691        C693   1.291       .  A
O692       Zr721   2.431       .  S
O692        C693   1.287   1_545  A
C693       C1901   1.480       .  S
Zr694       O695   2.434   1_545  S
Zr694       O696   2.433       .  S
Zr694       O700   2.374       .  S
Zr694       O701   2.370       .  S
Zr694       O724   2.383       .  S
Zr694       O726   2.375       .  S
O695        H738   0.990       .  S
O696        H737   0.990       .  S
O696        H741   0.990       .  S
Zr697       O698   2.437   1_545  S
Zr697       O699   2.434       .  S
Zr697       O701   2.351       .  S
Zr697       O700   2.380       .  S
Zr697       O725   2.372       .  S
Zr697       O727   2.364       .  S
O698        H739   0.990       .  S
O698        H742   0.989       .  S
O699        H732   0.990       .  S
O700       Zr720   2.376       .  S
O701       Zr721   2.378       .  S
O701        H728   0.960   1_545  S
O702       Zr714   2.482       .  S
O702        C704   1.293       .  A
O703       Zr721   2.418       .  S
O703        C704   1.284       .  A
C704       C1758   1.481       .  S
O705       Zr717   2.435       .  S
O705        C707   1.286       .  A
O706       Zr720   2.422       .  S
O706        C707   1.286       .  A
C707       C1786   1.477       .  S
O708       Zr717   2.442       .  S
O708        C710   1.287       .  A
O709       Zr721   2.413       .  S
O709        C710   1.286       .  A
C710       C1817   1.487       .  S
O711       Zr714   2.444       .  S
O711        C713   1.289       .  A
O712       Zr720   2.420       .  S
O712        C713   1.285       .  A
C713       C1772   1.485       .  S
Zr714       O715   2.438       .  S
Zr714       O716   2.433       .  S
Zr714       O722   2.359       .  S
Zr714       O723   2.378       .  S
Zr714       O726   2.383       .  S
Zr714       O724   2.378       .  S
O715        H735   0.990       .  S
O715        H740   0.990       .  S
O716        H736   0.990       .  S
Zr717       O718   2.434       .  S
Zr717       O719   2.434       .  S
Zr717       O723   2.368       .  S
Zr717       O722   2.352       .  S
Zr717       O727   2.376       .  S
Zr717       O725   2.370       .  S
O718        H734   0.990       .  S
O719        H733   0.990       .  S
O719        H743   0.990       .  S
Zr720       O723   2.379       .  S
Zr720       O725   2.392       .  S
Zr720       O726   2.399       .  S
Zr721       O722   2.371       .  S
Zr721       O724   2.390       .  S
Zr721       O727   2.391       .  S
O722        H730   0.960       .  S
O725        H729   0.966       .  S
O726        H731   0.966       .  S
O744       Zr756   2.424       .  S
O744        C746   1.285       .  A
O745       Zr782   2.421       .  S
O745        C746   1.286       .  A
C746       C3035   1.481       .  S
O747       Zr759   2.414       .  S
O747        C749   1.282       .  A
O748       Zr783   2.454       .  S
O748        C749   1.290       .  A
C749       C1677   1.494   1_554  S
O750       Zr759   2.427       .  S
O750        C752   1.284       .  A
O751       Zr782   2.439       .  S
O751        C752   1.288       .  A
C752       C1688   1.473       .  S
O753       Zr756   2.441       .  S
O753        C755   1.288       .  A
O754       Zr783   2.417       .  S
O754        C755   1.284       .  A
C755       C1744   1.491       .  S
Zr756       O757   2.434   1_554  S
Zr756       O758   2.434       .  S
Zr756       O762   2.376       .  S
Zr756       O763   2.366       .  S
Zr756       O786   2.366       .  S
Zr756       O788   2.370       .  S
O757        H800   0.990       .  S
O758        H799   0.990       .  S
O758        H803   0.990       .  S
Zr759       O760   2.436   1_554  S
Zr759       O761   2.435       .  S
Zr759       O763   2.365       .  S
Zr759       O762   2.363       .  S
Zr759       O787   2.362       .  S
Zr759       O789   2.371       .  S
O760        H801   0.990       .  S
O760        H804   0.990       .  S
O761        H794   0.990       .  S
O762       Zr782   2.369       .  S
O763       Zr783   2.382       .  S
O763        H790   0.965       .  S
O764       Zr776   2.446       .  S
O764        C766   1.289       .  A
O765       Zr783   2.429       .  S
O765        C766   1.288       .  A
C766       C1884   1.486       .  S
O767       Zr779   2.446       .  S
O767        C769   1.290       .  A
O768       Zr782   2.417       .  S
O768        C769   1.284       .  A
C769       C1719   1.478       .  S
O770       Zr779   2.448       .  S
O770        C772   1.291       .  A
O771       Zr783   2.419       .  S
O771        C772   1.285       .  A
C772       C1730   1.486       .  S
O773       Zr776   2.447       .  S
O773        C775   1.288       .  A
O774       Zr782   2.413       .  S
O774        C775   1.286       .  A
C775       C1702   1.482       .  S
Zr776       O777   2.437       .  S
Zr776       O778   2.434       .  S
Zr776       O784   2.370       .  S
Zr776       O785   2.367       .  S
Zr776       O788   2.374       .  S
Zr776       O786   2.380       .  S
O777        H797   0.990       .  S
O777        H802   0.990       .  S
O778        H798   0.990       .  S
Zr779       O780   2.434       .  S
Zr779       O781   2.434       .  S
Zr779       O785   2.365       .  S
Zr779       O784   2.369       .  S
Zr779       O789   2.371       .  S
Zr779       O787   2.371       .  S
O780        H796   0.990       .  S
O781        H795   0.990       .  S
O781        H805   0.990       .  S
Zr782       O785   2.380       .  S
Zr782       O787   2.384       .  S
Zr782       O788   2.394       .  S
Zr783       O784   2.392       .  S
Zr783       O786   2.393       .  S
Zr783       O789   2.390       .  S
O784        H792   0.965       .  S
O787        H791   0.966       .  S
O788        H793   0.966       .  S
C806        C807   1.406       .  A
C806        C811   1.407       .  A
C806       C1663   1.477       .  S
C807        C808   1.401       .  A
C807        H812   1.084       .  S
C808        C809   1.397       .  A
C808       C1716   1.474       .  S
C809        C810   1.400       .  A
C809        H813   1.085       .  S
C810        C811   1.403       .  A
C810       C1775   1.477       .  S
C811        H814   1.084       .  S
C815        C816   1.402       .  A
C815        C820   1.405       .  A
C815       C1646   1.483       .  S
C816        C817   1.405       .  A
C816        H821   1.083       .  S
C817        C818   1.408       .  A
C817       C1691   1.491       .  S
C818        C819   1.402       .  A
C818        H822   1.084       .  S
C819        C820   1.403       .  A
C819       C1632   1.478       .  S
C820        H823   1.083       .  S
C824        C825   1.406       .  A
C824        C829   1.413       .  A
C824       C1674   1.503       .  S
C825        C826   1.392       .  A
C825        H830   1.084       .  S
C826        C827   1.398       .  A
C826       C1618   1.479       .  S
C827        C828   1.406       .  A
C827        H831   1.084       .  S
C828        C829   1.415       .  A
C828       C1607   1.481       .  S
C829        H832   1.082       .  S
O833       Zr845   2.458   1_565  S
O833        C835   1.290       .  A
O834       Zr871   2.416       .  S
O834        C835   1.280       .  A
C835       C3133   1.486       .  S
O836       Zr848   2.436       .  S
O836        C838   1.286       .  A
O837       Zr872   2.420       .  S
O837        C838   1.285       .  A
C838       C1621   1.476       .  S
O839       Zr848   2.397       .  S
O839        C841   1.273   1_545  A
O840       Zr871   2.451       .  S
O840        C841   1.287       .  A
C841       C2405   1.469       .  S
O842       Zr845   2.434       .  S
O842        C844   1.290       .  A
O843       Zr872   2.424       .  S
O843        C844   1.286       .  A
C844       C1579   1.480       .  S
Zr845       O846   2.429       .  S
Zr845       O847   2.433       .  S
Zr845       O851   2.346       .  S
Zr845       O852   2.373       .  S
Zr845       O875   2.359       .  S
Zr845       O877   2.371       .  S
O846        H889   0.989       .  S
O847        H888   0.990       .  S
O847        H892   0.990       .  S
Zr848       O849   2.438       .  S
Zr848       O850   2.433       .  S
Zr848       O852   2.357       .  S
Zr848       O851   2.367       .  S
Zr848       O876   2.396       .  S
Zr848       O878   2.348       .  S
O849        H890   0.990       .  S
O849        H893   0.991       .  S
O850        H883   0.990       .  S
O851       Zr871   2.321   1_545  S
O852       Zr872   2.399       .  S
O852        H879   0.965       .  S
O853       Zr865   2.459       .  S
O853        C855   1.293       .  A
O854       Zr872   2.411       .  S
O854        C855   1.283       .  A
C855       C1590   1.493       .  S
O856       Zr868   2.471   1_565  S
O856        C858   1.291       .  A
O857       Zr871   2.398       .  S
O857        C858   1.282       .  A
C858       C2433   1.488       .  S
O859       Zr868   2.466       .  S
O859        C861   1.293       .  A
O860       Zr872   2.418       .  S
O860        C861   1.288       .  A
C861       C1649   1.494       .  S
O862       Zr865   2.424   1_565  S
O862        C864   1.284       .  A
O863       Zr871   2.424       .  S
O863        C864   1.284       .  A
C864       C2615   1.491       .  S
Zr865       O866   2.437       .  S
Zr865       O867   2.434       .  S
Zr865       O873   2.359       .  S
Zr865       O874   2.390       .  S
Zr865       O877   2.390       .  S
Zr865       O875   2.376       .  S
O866        H886   0.990       .  S
O866        H891   0.990       .  S
O867        H887   0.990       .  S
Zr868       O869   2.435       .  S
Zr868       O870   2.433       .  S
Zr868       O874   2.389       .  S
Zr868       O873   2.385       .  S
Zr868       O878   2.400       .  S
Zr868       O876   2.410       .  S
O869        H885   0.990       .  S
O870        H884   0.990       .  S
O870        H894   0.990       .  S
Zr871       O874   2.369   1_565  S
Zr871       O876   2.397   1_565  S
Zr871       O877   2.388   1_565  S
Zr872       O873   2.389       .  S
Zr872       O875   2.400       .  S
Zr872       O878   2.403       .  S
O873        H881   0.965       .  S
O876        H880   0.966       .  S
O877        H882   0.966       .  S
C895        C896   1.397       .  A
C895        C900   1.402       .  A
C895       C1747   1.471       .  S
C896        C897   1.397       .  A
C896        H901   1.085       .  S
C897        C898   1.397       .  A
C897       C2083   1.465       .  S
C898        C899   1.403       .  A
C898        H902   1.084       .  S
C899        C900   1.404       .  A
C899       C1562   1.471       .  S
C900        H903   1.084       .  S
C904        C905   1.406       .  A
C904        C909   1.404       .  A
C904       C1548   1.474       .  S
C905        C906   1.405       .  A
C905        H910   1.084       .  S
C906        C907   1.397       .  A
C906       C2486   1.473       .  S
C907        C908   1.397       .  A
C907        H911   1.085       .  S
C908        C909   1.399       .  A
C908       C1534   1.470       .  S
C909        H912   1.084       .  S
C913        C914   1.412       .  A
C913        C918   1.405       .  A
C913       C2839   1.488       .  S
C914        C915   1.414       .  A
C914       C1565   1.480       .  S
C915        C916   1.414       .  A
C915       C1604   1.492       .  S
C916        C917   1.414       .  A
C916       C1520   1.488       .  S
C917        C918   1.406       .  A
C917       C1506   1.482       .  S
C918       C1551   1.482       .  S
C919        C920   1.401       .  A
C919        C924   1.397       .  A
C919       C1576   1.473       .  S
C920        C921   1.406       .  A
C920        H925   1.084       .  S
C921        C922   1.405       .  A
C921       C1523   1.475       .  S
C922        C923   1.402       .  A
C922        H926   1.083       .  S
C923        C924   1.397       .  A
C923       C1492   1.481       .  S
C924        H927   1.085       .  S
O928       Zr940   2.435   1_565  S
O928        C930   1.286       .  A
O929       Zr966   2.420       .  S
O929        C930   1.286   1_545  A
C930       C3119   1.478       .  S
O931       Zr943   2.448   1_565  S
O931        C933   1.289       .  A
O932       Zr967   2.426       .  S
O932        C933   1.286   1_545  A
C933       C2923   1.494       .  S
O934       Zr943   2.424   1_565  S
O934        C936   1.284       .  A
O935       Zr966   2.425       .  S
O935        C936   1.285   1_545  A
C936       C2881   1.464       .  S
O937       Zr940   2.441   1_565  S
O937        C939   1.287       .  A
O938       Zr967   2.415       .  S
O938        C939   1.285   1_545  A
C939       C2013   1.474       .  S
Zr940       O941   2.433   1_545  S
Zr940       O942   2.435       .  S
Zr940       O946   2.363       .  S
Zr940       O947   2.373       .  S
Zr940       O970   2.371       .  S
Zr940       O972   2.374       .  S
O941        H984   0.990       .  S
O942        H983   0.990       .  S
O942        H987   0.990       .  S
Zr943       O944   2.434   1_545  S
Zr943       O945   2.434       .  S
Zr943       O947   2.367       .  S
Zr943       O946   2.366       .  S
Zr943       O971   2.372       .  S
Zr943       O973   2.368       .  S
O944        H985   0.990       .  S
O944        H988   0.990       .  S
O945        H978   0.990       .  S
O946       Zr966   2.372       .  S
O947       Zr967   2.380       .  S
O947        H974   0.965   1_545  S
O948       Zr960   2.454       .  S
O948        C950   1.290       .  A
O949       Zr967   2.405       .  S
O949        C950   1.282       .  A
C950       C1803   1.486       .  S
O951       Zr963   2.440       .  S
O951        C953   1.287       .  A
O952       Zr966   2.417       .  S
O952        C953   1.283       .  A
C953       C1464   1.467       .  S
O954       Zr963   2.446       .  S
O954        C956   1.290       .  A
O955       Zr967   2.420       .  S
O955        C956   1.285       .  A
C956       C1478   1.478       .  S
O957       Zr960   2.424       .  S
O957        C959   1.284       .  A
O958       Zr966   2.429       .  S
O958        C959   1.288       .  A
C959       C1495   1.477       .  S
Zr960       O961   2.438       .  S
Zr960       O962   2.434       .  S
Zr960       O968   2.356       .  S
Zr960       O969   2.377       .  S
Zr960       O972   2.377       .  S
Zr960       O970   2.371       .  S
O961        H981   0.990       .  S
O961        H986   0.990       .  S
O962        H982   0.990       .  S
Zr963       O964   2.433       .  S
Zr963       O965   2.433       .  S
Zr963       O969   2.371       .  S
Zr963       O968   2.369       .  S
Zr963       O973   2.371       .  S
Zr963       O971   2.369       .  S
O964        H980   0.990       .  S
O965        H979   0.990       .  S
O965        H989   0.990       .  S
Zr966       O969   2.377       .  S
Zr966       O971   2.393       .  S
Zr966       O972   2.395       .  S
Zr967       O968   2.385       .  S
Zr967       O970   2.388       .  S
Zr967       O973   2.385       .  S
O968        H976   0.964       .  S
O971        H975   0.966       .  S
O972        H977   0.966       .  S
C990        C991   1.410       .  A
C990        C995   1.411       .  A
C990       C1856   1.483       .  S
C991        C992   1.401       .  A
C991        H996   1.084       .  S
C992        C993   1.392       .  A
C992       C1481   1.470       .  S
C993        C994   1.394       .  A
C993        H997   1.086       .  S
C994        C995   1.406       .  A
C994       C1453   1.479       .  S
C995        H998   1.084       .  S
C999       C1000   1.406       .  A
C999       C1004   1.402       .  A
C999       C1436   1.483       .  S
C1000      C1001   1.403       .  A
C1000      H1005   1.084       .  S
C1001      C1002   1.401       .  A
C1001      C1509   1.473       .  S
C1002      C1003   1.401       .  A
C1002      H1006   1.084       .  S
C1003      C1004   1.402       .  A
C1003      C1467   1.474       .  S
C1004      H1007   1.085       .  S
C1008      C1009   1.412       .  A
C1008      C1013   1.412       .  A
C1008      C1408   1.491       .  S
C1009      C1010   1.409       .  A
C1009      H1014   1.084       .  S
C1010      C1011   1.395       .  A
C1010      C1425   1.483       .  S
C1011      C1012   1.397       .  A
C1011      H1015   1.086       .  S
C1012      C1013   1.407       .  A
C1012      C1593   1.483       .  S
C1013      H1016   1.083       .  S
C1017      C1018   1.423       .  A
C1017      C1022   1.418       .  A
C1017      C3063   1.495       .  S
C1018      C1019   1.423       .  A
C1018      C2461   1.497       .  S
C1019      C1020   1.420       .  A
C1019      C1397   1.505       .  S
C1020      C1021   1.416       .  A
C1020      C1380   1.490       .  S
C1021      C1022   1.414       .  A
C1021      C1411   1.500       .  S
C1022      C1635   1.490       .  S
O1023     Zr1035   2.439   1_565  S
O1023      C1025   1.288       .  A
O1024     Zr1061   2.415       .  S
O1024      C1025   1.283       .  A
C1025      C2797   1.494       .  S
O1026     Zr1038   2.435       .  S
O1026      C1028   1.286       .  A
O1027     Zr1062   2.441       .  S
O1027      C1028   1.288       .  A
C1028      C1366   1.498       .  S
O1029     Zr1038   2.453   1_565  S
O1029      C1031   1.289       .  A
O1030     Zr1061   2.390       .  S
O1030      C1031   1.278       .  A
C1031      C2951   1.464       .  S
O1032     Zr1035   2.447       .  S
O1032      C1034   1.289       .  A
O1033     Zr1062   2.392       .  S
O1033      C1034   1.280       .  A
C1034      C1341   1.472       .  S
Zr1035     O1036   2.433       .  S
Zr1035     O1037   2.435       .  S
Zr1035     O1041   2.373       .  S
Zr1035     O1042   2.362       .  S
Zr1035     O1065   2.370       .  S
Zr1035     O1067   2.368       .  S
O1036      H1079   0.990       .  S
O1037      H1078   0.990       .  S
O1037      H1082   0.990       .  S
Zr1038     O1039   2.437       .  S
Zr1038     O1040   2.434       .  S
Zr1038     O1042   2.374       .  S
Zr1038     O1041   2.367       .  S
Zr1038     O1066   2.362       .  S
Zr1038     O1068   2.379       .  S
O1039      H1080   0.990       .  S
O1039      H1083   0.990       .  S
O1040      H1073   0.990       .  S
O1041     Zr1061   2.363   1_545  S
O1042     Zr1062   2.384       .  S
O1042      H1069   0.964       .  S
O1043     Zr1055   2.421       .  S
O1043      C1045   1.283       .  A
O1044     Zr1062   2.432       .  S
O1044      C1045   1.289       .  A
C1045      C1355   1.488       .  S
O1046     Zr1058   2.468   1_565  S
O1046      C1048   1.294       .  A
O1047     Zr1061   2.392       .  S
O1047      C1048   1.280       .  A
C1048      C2601   1.473       .  S
O1049     Zr1058   2.481       .  S
O1049      C1051   1.295       .  A
O1050     Zr1062   2.406       .  S
O1050      C1051   1.282       .  A
C1051      C1422   1.476       .  S
O1052     Zr1055   2.434   1_565  S
O1052      C1054   1.286       .  A
O1053     Zr1061   2.396       .  S
O1053      C1054   1.282       .  A
C1054      C2755   1.481       .  S
Zr1055     O1056   2.437       .  S
Zr1055     O1057   2.434       .  S
Zr1055     O1063   2.365       .  S
Zr1055     O1064   2.362       .  S
Zr1055     O1067   2.366       .  S
Zr1055     O1065   2.379       .  S
O1056      H1076   0.990       .  S
O1056      H1081   0.990       .  S
O1057      H1077   0.990       .  S
Zr1058     O1059   2.434       .  S
Zr1058     O1060   2.434       .  S
Zr1058     O1064   2.377       .  S
Zr1058     O1063   2.371       .  S
Zr1058     O1068   2.378       .  S
Zr1058     O1066   2.381       .  S
O1059      H1075   0.990       .  S
O1060      H1074   0.990       .  S
O1060      H1084   0.990       .  S
Zr1061     O1064   2.374   1_565  S
Zr1061     O1066   2.385   1_565  S
Zr1061     O1067   2.375   1_565  S
Zr1062     O1063   2.386       .  S
Zr1062     O1065   2.386       .  S
Zr1062     O1068   2.389       .  S
O1063      H1071   0.965       .  S
O1066      H1070   0.966       .  S
O1067      H1072   0.966       .  S
O1085     Zr1097   2.418   1_655  S
O1085      C1087   1.283       .  A
O1086     Zr1123   2.442       .  S
O1086      C1087   1.288       .  A
C1087      C2993   1.475       .  S
O1088     Zr1100   2.463       .  S
O1088      C1090   1.289       .  A
O1089     Zr1124   2.395       .  S
O1089      C1090   1.282       .  A
C1090      C1324   1.484       .  S
O1091     Zr1100   2.435   1_655  S
O1091      C1093   1.285       .  A
O1092     Zr1123   2.427       .  S
O1092      C1093   1.287       .  A
C1093      C1450   1.482       .  S
O1094     Zr1097   2.427       .  S
O1094      C1096   1.284       .  A
O1095     Zr1124   2.437       .  S
O1095      C1096   1.287       .  A
C1096      C1299   1.496       .  S
Zr1097     O1098   2.433       .  S
Zr1097     O1099   2.434       .  S
Zr1097     O1103   2.362       .  S
Zr1097     O1104   2.365       .  S
Zr1097     O1127   2.363       .  S
Zr1097     O1129   2.364   1_455  S
O1098      H1141   0.990       .  S
O1099      H1140   0.990       .  S
O1099      H1144   0.990       .  S
Zr1100     O1101   2.433       .  S
Zr1100     O1102   2.434       .  S
Zr1100     O1104   2.369       .  S
Zr1100     O1103   2.370       .  S
Zr1100     O1128   2.378       .  S
Zr1100     O1130   2.369       .  S
O1101      H1142   0.989       .  S
O1101      H1145   0.990       .  S
O1102      H1135   0.990       .  S
O1103     Zr1123   2.370   1_455  S
O1104     Zr1124   2.378       .  S
O1104      H1131   0.964       .  S
O1105     Zr1117   2.471       .  S
O1105      C1107   1.295       .  A
O1106     Zr1124   2.394       .  S
O1106      C1107   1.279       .  A
C1107      C1282   1.490       .  S
O1108     Zr1120   2.438   1_655  S
O1108      C1110   1.287       .  A
O1109     Zr1123   2.429       .  S
O1109      C1110   1.289       .  A
C1110      C1439   1.486       .  S
O1111     Zr1120   2.448       .  S
O1111      C1113   1.289       .  A
O1112     Zr1124   2.416       .  S
O1112      C1113   1.286       .  A
C1113      C1313   1.482       .  S
O1114     Zr1117   2.444   1_655  S
O1114      C1116   1.290       .  A
O1115     Zr1123   2.414       .  S
O1115      C1116   1.284       .  A
C1116      C1537   1.478       .  S
Zr1117     O1118   2.437       .  S
Zr1117     O1119   2.434       .  S
Zr1117     O1125   2.362       .  S
Zr1117     O1126   2.373       .  S
Zr1117     O1129   2.379   1_455  S
Zr1117     O1127   2.372       .  S
O1118      H1138   0.990       .  S
O1118      H1143   0.990       .  S
O1119      H1139   0.990       .  S
Zr1120     O1121   2.434       .  S
Zr1120     O1122   2.434       .  S
Zr1120     O1126   2.370       .  S
Zr1120     O1125   2.368       .  S
Zr1120     O1130   2.379       .  S
Zr1120     O1128   2.380       .  S
O1121      H1137   0.990       .  S
O1122      H1136   0.990       .  S
O1122      H1146   0.990       .  S
Zr1123     O1126   2.382   1_655  S
Zr1123     O1128   2.397   1_655  S
Zr1123     O1129   2.394       .  S
Zr1124     O1125   2.385       .  S
Zr1124     O1127   2.383       .  S
Zr1124     O1130   2.388       .  S
O1125      H1133   0.965       .  S
O1128      H1132   0.966   1_455  S
O1129      H1134   0.966       .  S
C1147      C1148   1.393       .  A
C1147      C1152   1.400       .  A
C1147      C1338   1.472       .  S
C1148      C1149   1.392       .  A
C1148      H1153   1.085       .  S
C1149      C1150   1.401       .  A
C1149      C1327   1.471       .  S
C1150      C1151   1.408       .  A
C1150      H1154   1.084       .  S
C1151      C1152   1.407       .  A
C1151      C1268   1.476       .  S
C1152      H1155   1.084       .  S
C1156      C1157   1.412       .  A
C1156      C1161   1.412       .  A
C1156      C1394   1.486       .  S
C1157      C1158   1.406       .  A
C1157      H1162   1.084       .  S
C1158      C1159   1.392       .  A
C1158      C2500   1.473       .  S
C1159      C1160   1.392       .  A
C1159      H1163   1.086       .  S
C1160      C1161   1.406       .  A
C1160      C1285   1.476       .  S
C1161      H1164   1.084       .  S
C1165      C1166   1.405       .  A
C1165      C1170   1.400       .  A
C1165      C1310   1.479       .  S
C1166      C1167   1.406       .  A
C1166      H1171   1.083       .  S
C1167      C1168   1.401       .  A
C1167      C1383   1.477       .  S
C1168      C1169   1.399       .  A
C1168      H1172   1.084       .  S
C1169      C1170   1.396       .  A
C1169      C1352   1.470       .  S
C1170      H1173   1.085       .  S
C1174      C1175   1.410       .  A
C1174      C1179   1.409       .  A
C1174      C1831   1.483       .  S
C1175      C1176   1.408       .  A
C1175      H1180   1.084       .  S
C1176      C1177   1.395       .  A
C1176      C1761   1.478       .  S
C1177      C1178   1.396       .  A
C1177      H1181   1.086       .  S
C1178      C1179   1.404       .  A
C1178      C1733   1.476       .  S
C1179      H1182   1.084       .  S
C1183      C1184   1.408       .  A
C1183      C1188   1.400       .  A
C1183      C2251   1.489       .  S
C1184      C1185   1.410       .  A
C1184      H1189   1.083       .  S
C1185      C1186   1.409       .  A
C1185      C2321   1.483       .  S
C1186      C1187   1.403       .  A
C1186      H1190   1.084       .  S
C1187      C1188   1.398       .  A
C1187      C2220   1.478       .  S
C1188      H1191   1.085       .  S
C1192      C1193   1.402       .  A
C1192      C1197   1.409       .  A
C1192      C2279   1.488       .  S
C1193      C1194   1.401       .  A
C1193      H1198   1.084       .  S
C1194      C1195   1.404       .  A
C1194      C1705   1.484       .  S
C1195      C1196   1.403       .  A
C1195      H1199   1.084       .  S
C1196      C1197   1.406       .  A
C1196      C1257   1.480       .  S
C1197      H1200   1.084       .  S
C1201      C1202   1.406       .  A
C1201      C1206   1.416       .  A
C1201      C1369   1.505       .  S
C1202      C1203   1.393       .  A
C1202      H1207   1.084       .  S
C1203      C1204   1.396       .  A
C1203      C1789   1.477       .  S
C1204      C1205   1.404       .  A
C1204      H1208   1.084       .  S
C1205      C1206   1.415       .  A
C1205      C1240   1.479       .  S
C1206      H1209   1.082       .  S
C1210      C1211   1.405       .  A
C1210      C1215   1.412       .  A
C1210      C1296   1.495       .  S
C1211      C1212   1.393       .  A
C1211      H1216   1.085       .  S
C1212      C1213   1.395       .  A
C1212      C2195   1.470       .  S
C1213      C1214   1.402       .  A
C1213      H1217   1.084       .  S
C1214      C1215   1.412       .  A
C1214      C1226   1.475       .  S
C1215      H1218   1.083       .  S
C1219      C1220   1.413       .  A
C1219      C1224   1.413       .  A
C1219      C1254   1.491       .  S
C1220      C1221   1.413       .  A
C1220      C2153   1.489       .  S
C1221      C1222   1.415       .  A
C1221      C1229   1.487       .  S
C1222      C1223   1.413       .  A
C1222      C1271   1.489       .  S
C1223      C1224   1.413       .  A
C1223      C1243   1.490       .  S
C1224      C1660   1.489       .  S
C1225      C1226   1.399       .  A
C1225      C1230   1.400       .  A
C1225      H1232   1.084       .  S
C1226      C1227   1.411       .  A
C1227      C1228   1.408       .  A
C1227      N1234   1.437       .  S
C1228      C1229   1.402       .  A
C1228      H1233   1.081       .  S
C1229      C1230   1.409       .  A
C1230      N1231   1.433       .  S
N1231      H1235   1.045       .  S
N1231      H1236   1.045       .  S
N1234      H1237   1.046       .  S
N1234      H1238   1.046       .  S
C1239      C1240   1.404       .  A
C1239      C1244   1.408       .  A
C1239      H1246   1.084       .  S
C1240      C1241   1.407       .  A
C1241      C1242   1.402       .  A
C1241      N1248   1.438       .  S
C1242      C1243   1.403       .  A
C1242      H1247   1.084       .  S
C1243      C1244   1.416       .  A
C1244      N1245   1.436       .  S
N1245      H1249   1.046       .  S
N1245      H1250   1.043       .  S
N1248      H1251   1.046       .  S
N1248      H1252   1.046       .  S
C1253      C1254   1.403       .  A
C1253      C1258   1.409       .  A
C1253      H1260   1.083       .  S
C1254      C1255   1.413       .  A
C1255      C1256   1.404       .  A
C1255      N1262   1.438       .  S
C1256      C1257   1.400       .  A
C1256      H1261   1.084       .  S
C1257      C1258   1.413       .  A
C1258      N1259   1.437       .  S
N1259      H1263   1.045       .  S
N1259      H1264   1.046       .  S
N1262      H1265   1.046       .  S
N1262      H1266   1.045       .  S
C1267      C1268   1.401       .  A
C1267      C1272   1.403       .  A
C1267      H1274   1.084       .  S
C1268      C1269   1.410       .  A
C1269      C1270   1.404       .  A
C1269      N1276   1.438       .  S
C1270      C1271   1.402       .  A
C1270      H1275   1.082       .  S
C1271      C1272   1.411       .  A
C1272      N1273   1.438       .  S
N1273      H1277   1.045       .  S
N1273      H1278   1.044       .  S
N1276      H1279   1.046       .  S
N1276      H1280   1.046       .  S
C1281      C1282   1.404       .  A
C1281      C1286   1.395       .  A
C1281      H1288   1.084       .  S
C1282      C1283   1.426       .  A
C1283      C1284   1.411       .  A
C1283      N1290   1.438       .  S
C1284      C1285   1.397       .  A
C1284      H1289   1.084       .  S
C1285      C1286   1.409       .  A
C1286      N1287   1.434       .  S
N1287      H1291   1.046       .  S
N1287      H1292   1.045       .  S
N1290      H1293   1.045       .  S
N1290      H1294   1.046       .  S
C1295      C1296   1.404       .  A
C1295      C1300   1.392       .  A
C1295      H1302   1.083       .  S
C1296      C1297   1.419       .  A
C1297      C1298   1.412       .  A
C1297      N1304   1.437       .  S
C1298      C1299   1.412       .  A
C1298      H1303   1.083       .  S
C1299      C1300   1.418       .  A
C1300      N1301   1.440       .  S
N1301      H1305   1.046       .  S
N1301      H1306   1.046       .  S
N1304      H1307   1.042       .  S
N1304      H1308   1.046       .  S
C1309      C1310   1.405       .  A
C1309      C1314   1.407       .  A
C1309      H1316   1.084       .  S
C1310      C1311   1.413       .  A
C1311      C1312   1.395       .  A
C1311      N1318   1.433       .  S
C1312      C1313   1.406       .  A
C1312      H1317   1.083       .  S
C1313      C1314   1.413       .  A
C1314      N1315   1.438       .  S
N1315      H1319   1.046       .  S
N1315      H1320   1.046       .  S
N1318      H1321   1.045       .  S
N1318      H1322   1.044       .  S
C1323      C1324   1.406       .  A
C1323      C1328   1.397       .  A
C1323      H1330   1.084       .  S
C1324      C1325   1.421       .  A
C1325      C1326   1.400       .  A
C1325      N1332   1.430       .  S
C1326      C1327   1.397       .  A
C1326      H1331   1.084       .  S
C1327      C1328   1.409       .  A
C1328      N1329   1.439       .  S
N1329      H1333   1.046       .  S
N1329      H1334   1.046       .  S
N1332      H1335   1.045       .  S
N1332      H1336   1.043       .  S
C1337      C1338   1.402       .  A
C1337      C1342   1.389       .  A
C1337      H1344   1.085       .  S
C1338      C1339   1.407       .  A
C1339      C1340   1.406       .  A
C1339      N1346   1.437       .  S
C1340      C1341   1.407       .  A
C1340      H1345   1.084       .  S
C1341      C1342   1.415       .  A
C1342      N1343   1.434       .  S
N1343      H1347   1.044       .  S
N1343      H1348   1.046       .  S
N1346      H1349   1.046       .  S
N1346      H1350   1.046       .  S
C1351      C1352   1.397       .  A
C1351      C1356   1.403       .  A
C1351      H1358   1.084       .  S
C1352      C1353   1.406       .  A
C1353      C1354   1.402       .  A
C1353      N1360   1.438       .  S
C1354      C1355   1.408       .  A
C1354      H1359   1.083       .  S
C1355      C1356   1.423       .  A
C1356      N1357   1.438       .  S
N1357      H1361   1.046       .  S
N1357      H1362   1.045       .  S
N1360      H1363   1.046       .  S
N1360      H1364   1.045       .  S
C1365      C1366   1.413       .  A
C1365      C1370   1.415       .  A
C1365      H1372   1.083       .  S
C1366      C1367   1.415       .  A
C1367      C1368   1.392       .  A
C1367      N1374   1.439       .  S
C1368      C1369   1.407       .  A
C1368      H1373   1.082       .  S
C1369      C1370   1.422       .  A
C1370      N1371   1.435       .  S
N1371      H1375   1.045       .  S
N1371      H1376   1.043       .  S
N1374      H1377   1.046       .  S
N1374      H1378   1.046       .  S
C1379      C1380   1.401       .  A
C1379      C1384   1.399       .  A
C1379      H1386   1.079       .  S
C1380      C1381   1.414       .  A
C1381      C1382   1.402       .  A
C1381      N1388   1.436       .  S
C1382      C1383   1.398       .  A
C1382      H1387   1.084       .  S
C1383      C1384   1.415       .  A
C1384      N1385   1.433       .  S
N1385      H1389   1.044       .  S
N1385      H1390   1.045       .  S
N1388      H1391   1.043       .  S
N1388      H1392   1.046       .  S
C1393      C1394   1.403       .  A
C1393      C1398   1.405       .  A
C1393      H1400   1.084       .  S
C1394      C1395   1.416       .  A
C1395      C1396   1.404       .  A
C1395      N1402   1.438       .  S
C1396      C1397   1.407       .  A
C1396      H1401   1.084       .  S
C1397      C1398   1.420       .  A
C1398      N1399   1.435       .  S
N1399      H1403   1.045       .  S
N1399      H1404   1.041       .  S
N1402      H1405   1.043       .  S
N1402      H1406   1.046       .  S
C1407      C1408   1.403       .  A
C1407      C1412   1.409       .  A
C1407      H1414   1.084       .  S
C1408      C1409   1.416       .  A
C1409      C1410   1.406       .  A
C1409      N1416   1.432       .  S
C1410      C1411   1.404       .  A
C1410      H1415   1.081       .  S
C1411      C1412   1.413       .  A
C1412      N1413   1.433       .  S
N1413      H1417   1.045       .  S
N1413      H1418   1.045       .  S
N1416      H1419   1.045       .  S
N1416      H1420   1.045       .  S
C1421      C1422   1.401       .  A
C1421      C1426   1.405       .  A
C1421      H1428   1.084       .  S
C1422      C1423   1.409       .  A
C1423      C1424   1.410       .  A
C1423      N1430   1.437       .  S
C1424      C1425   1.406       .  A
C1424      H1429   1.084       .  S
C1425      C1426   1.413       .  A
C1426      N1427   1.439       .  S
N1427      H1431   1.045       .  S
N1427      H1432   1.045       .  S
N1430      H1433   1.046       .  S
N1430      H1434   1.046       .  S
C1435      C1436   1.403       .  A
C1435      C1440   1.405       .  A
C1435      H1442   1.084       .  S
C1436      C1437   1.412       .  A
C1437      C1438   1.405       .  A
C1437      N1444   1.438       .  S
C1438      C1439   1.405       .  A
C1438      H1443   1.084       .  S
C1439      C1440   1.414       .  A
C1440      N1441   1.433       .  S
N1441      H1445   1.046       .  S
N1441      H1446   1.046       .  S
N1444      H1447   1.046       .  S
N1444      H1448   1.046       .  S
C1449      C1450   1.407       .  A
C1449      C1454   1.404       .  A
C1449      H1456   1.083       .  S
C1450      C1451   1.417       .  A
C1451      C1452   1.395       .  A
C1451      N1458   1.432       .  S
C1452      C1453   1.403       .  A
C1452      H1457   1.084       .  S
C1453      C1454   1.408       .  A
C1454      N1455   1.432       .  S
N1455      H1459   1.045       .  S
N1455      H1460   1.045       .  S
N1458      H1461   1.046       .  S
N1458      H1462   1.041       .  S
C1463      C1464   1.403       .  A
C1463      C1468   1.408       .  A
C1463      H1470   1.084       .  S
C1464      C1465   1.409       .  A
C1465      C1466   1.400       .  A
C1465      N1472   1.439       .  S
C1466      C1467   1.401       .  A
C1466      H1471   1.084       .  S
C1467      C1468   1.409       .  A
C1468      N1469   1.437       .  S
N1469      H1473   1.046       .  S
N1469      H1474   1.046       .  S
N1472      H1475   1.045       .  S
N1472      H1476   1.046       .  S
C1477      C1478   1.408       .  A
C1477      C1482   1.412       .  A
C1477      H1484   1.083       .  S
C1478      C1479   1.412       .  A
C1479      C1480   1.392       .  A
C1479      N1486   1.433       .  S
C1480      C1481   1.398       .  A
C1480      H1485   1.085       .  S
C1481      C1482   1.408       .  A
C1482      N1483   1.436       .  S
N1483      H1487   1.046       .  S
N1483      H1488   1.045       .  S
N1486      H1489   1.046       .  S
N1486      H1490   1.046       .  S
C1491      C1492   1.404       .  A
C1491      C1496   1.402       .  A
C1491      H1498   1.084       .  S
C1492      C1493   1.416       .  A
C1493      C1494   1.395       .  A
C1493      N1500   1.433       .  S
C1494      C1495   1.402       .  A
C1494      H1499   1.084       .  S
C1495      C1496   1.420       .  A
C1496      N1497   1.441       .  S
N1497      H1501   1.046       .  S
N1497      H1502   1.042       .  S
N1500      H1503   1.045       .  S
N1500      H1504   1.044       .  S
C1505      C1506   1.406       .  A
C1505      C1510   1.405       .  A
C1505      H1512   1.084       .  S
C1506      C1507   1.404       .  A
C1507      C1508   1.404       .  A
C1507      N1514   1.430       .  S
C1508      C1509   1.404       .  A
C1508      H1513   1.084       .  S
C1509      C1510   1.406       .  A
C1510      N1511   1.437       .  S
N1511      H1515   1.046       .  S
N1511      H1516   1.045       .  S
N1514      H1517   1.046       .  S
N1514      H1518   1.045       .  S
C1519      C1520   1.407       .  A
C1519      C1524   1.398       .  A
C1519      H1526   1.084       .  S
C1520      C1521   1.408       .  A
C1521      C1522   1.403       .  A
C1521      N1528   1.429       .  S
C1522      C1523   1.403       .  A
C1522      H1527   1.084       .  S
C1523      C1524   1.408       .  A
C1524      N1525   1.432       .  S
N1525      H1529   1.045       .  S
N1525      H1530   1.045       .  S
N1528      H1531   1.046       .  S
N1528      H1532   1.045       .  S
C1533      C1534   1.402       .  A
C1533      C1538   1.410       .  A
C1533      H1540   1.084       .  S
C1534      C1535   1.415       .  A
C1535      C1536   1.392       .  A
C1535      N1542   1.440       .  S
C1536      C1537   1.402       .  A
C1536      H1541   1.084       .  S
C1537      C1538   1.415       .  A
C1538      N1539   1.437       .  S
N1539      H1543   1.046       .  S
N1539      H1544   1.045       .  S
N1542      H1545   1.042       .  S
N1542      H1546   1.046       .  S
C1547      C1548   1.399       .  A
C1547      C1552   1.400       .  A
C1547      H1554   1.084       .  S
C1548      C1549   1.412       .  A
C1549      C1550   1.408       .  A
C1549      N1556   1.437       .  S
C1550      C1551   1.401       .  A
C1550      H1555   1.083       .  S
C1551      C1552   1.409       .  A
C1552      N1553   1.433       .  S
N1553      H1557   1.045       .  S
N1553      H1558   1.045       .  S
N1556      H1559   1.045       .  S
N1556      H1560   1.046       .  S
C1561      C1562   1.399       .  A
C1561      C1566   1.397       .  A
C1561      H1568   1.084       .  S
C1562      C1563   1.409       .  A
C1563      C1564   1.403       .  A
C1563      N1570   1.432       .  S
C1564      C1565   1.402       .  A
C1564      H1569   1.084       .  S
C1565      C1566   1.408       .  A
C1566      N1567   1.433       .  S
N1567      H1571   1.045       .  S
N1567      H1572   1.045       .  S
N1570      H1573   1.045       .  S
N1570      H1574   1.046       .  S
C1575      C1576   1.402       .  A
C1575      C1580   1.412       .  A
C1575      H1582   1.083       .  S
C1576      C1577   1.405       .  A
C1577      C1578   1.391       .  A
C1577      N1584   1.434       .  S
C1578      C1579   1.403       .  A
C1578      H1583   1.084       .  S
C1579      C1580   1.418       .  A
C1580      N1581   1.437       .  S
N1581      H1585   1.046       .  S
N1581      H1586   1.045       .  S
N1584      H1587   1.045       .  S
N1584      H1588   1.046       .  S
C1589      C1590   1.404       .  A
C1589      C1594   1.394       .  A
C1589      H1596   1.083       .  S
C1590      C1591   1.424       .  A
C1591      C1592   1.415       .  A
C1591      N1598   1.438       .  S
C1592      C1593   1.401       .  A
C1592      H1597   1.083       .  S
C1593      C1594   1.409       .  A
C1594      N1595   1.433       .  S
N1595      H1599   1.045       .  S
N1595      H1600   1.046       .  S
N1598      H1601   1.045       .  S
N1598      H1602   1.046       .  S
C1603      C1604   1.402       .  A
C1603      C1608   1.400       .  A
C1603      H1610   1.084       .  S
C1604      C1605   1.408       .  A
C1605      C1606   1.407       .  A
C1605      N1612   1.431       .  S
C1606      C1607   1.404       .  A
C1606      H1611   1.084       .  S
C1607      C1608   1.418       .  A
C1608      N1609   1.439       .  S
N1609      H1613   1.046       .  S
N1609      H1614   1.043       .  S
N1612      H1615   1.045       .  S
N1612      H1616   1.045       .  S
C1617      C1618   1.406       .  A
C1617      C1622   1.398       .  A
C1617      H1624   1.085       .  S
C1618      C1619   1.411       .  A
C1619      C1620   1.403       .  A
C1619      N1626   1.438       .  S
C1620      C1621   1.409       .  A
C1620      H1625   1.084       .  S
C1621      C1622   1.414       .  A
C1622      N1623   1.440       .  S
N1623      H1627   1.046       .  S
N1623      H1628   1.042       .  S
N1626      H1629   1.043       .  S
N1626      H1630   1.046       .  S
C1631      C1632   1.395       .  A
C1631      C1636   1.398       .  A
C1631      H1638   1.084       .  S
C1632      C1633   1.412       .  A
C1633      C1634   1.410       .  A
C1633      N1640   1.437       .  S
C1634      C1635   1.403       .  A
C1634      H1639   1.083       .  S
C1635      C1636   1.423       .  A
C1636      N1637   1.439       .  S
N1637      H1641   1.046       .  S
N1637      H1642   1.040       .  S
N1640      H1643   1.046       .  S
N1640      H1644   1.046       .  S
C1645      C1646   1.404       .  A
C1645      C1650   1.409       .  A
C1645      H1652   1.084       .  S
C1646      C1647   1.411       .  A
C1647      C1648   1.397       .  A
C1647      N1654   1.433       .  S
C1648      C1649   1.410       .  A
C1648      H1653   1.083       .  S
C1649      C1650   1.417       .  A
C1650      N1651   1.438       .  S
N1651      H1655   1.046       .  S
N1651      H1656   1.046       .  S
N1654      H1657   1.046       .  S
N1654      H1658   1.044       .  S
C1659      C1660   1.402       .  A
C1659      C1664   1.406       .  A
C1659      H1666   1.081       .  S
C1660      C1661   1.413       .  A
C1661      C1662   1.405       .  A
C1661      N1668   1.438       .  S
C1662      C1663   1.399       .  A
C1662      H1667   1.084       .  S
C1663      C1664   1.411       .  A
C1664      N1665   1.438       .  S
N1665      H1669   1.046       .  S
N1665      H1670   1.045       .  S
N1668      H1671   1.045       .  S
N1668      H1672   1.045       .  S
C1673      C1674   1.405       .  A
C1673      C1678   1.386       .  A
C1673      H1680   1.083       .  S
C1674      C1675   1.417       .  A
C1675      C1676   1.421       .  A
C1675      N1682   1.436       .  S
C1676      C1677   1.411       .  A
C1676      H1681   1.082   1_556  S
C1677      C1678   1.414       .  A
C1678      N1679   1.435       .  S
N1679      H1683   1.046       .  S
N1679      H1684   1.046       .  S
N1682      H1685   1.045       .  S
N1682      H1686   1.046       .  S
C1687      C1688   1.402       .  A
C1687      C1692   1.407   1_554  A
C1687      H1694   1.084       .  S
C1688      C1689   1.416   1_554  A
C1689      C1690   1.396       .  A
C1689      N1696   1.433       .  S
C1690      C1691   1.402       .  A
C1690      H1695   1.083       .  S
C1691      C1692   1.414       .  A
C1692      N1693   1.432       .  S
N1693      H1697   1.046       .  S
N1693      H1698   1.045       .  S
N1696      H1699   1.039       .  S
N1696      H1700   1.046       .  S
C1701      C1702   1.406       .  A
C1701      C1706   1.404       .  A
C1701      H1708   1.084       .  S
C1702      C1703   1.416       .  A
C1703      C1704   1.399       .  A
C1703      N1710   1.433       .  S
C1704      C1705   1.405       .  A
C1704      H1709   1.084       .  S
C1705      C1706   1.412       .  A
C1706      N1707   1.438       .  S
N1707      H1711   1.046       .  S
N1707      H1712   1.046       .  S
N1710      H1713   1.046       .  S
N1710      H1714   1.045       .  S
C1715      C1716   1.403       .  A
C1715      C1720   1.411       .  A
C1715      H1722   1.084       .  S
C1716      C1717   1.417       .  A
C1717      C1718   1.394       .  A
C1717      N1724   1.441       .  S
C1718      C1719   1.401       .  A
C1718      H1723   1.084       .  S
C1719      C1720   1.413       .  A
C1720      N1721   1.437       .  S
N1721      H1725   1.046       .  S
N1721      H1726   1.046       .  S
N1724      H1727   1.042       .  S
N1724      H1728   1.046       .  S
C1729      C1730   1.404       .  A
C1729      C1734   1.397       .  A
C1729      H1736   1.083       .  S
C1730      C1731   1.418       .  A
C1731      C1732   1.412       .  A
C1731      N1738   1.437       .  S
C1732      C1733   1.401       .  A
C1732      H1737   1.083       .  S
C1733      C1734   1.409       .  A
C1734      N1735   1.439       .  S
N1735      H1739   1.046       .  S
N1735      H1740   1.046       .  S
N1738      H1741   1.046       .  S
N1738      H1742   1.046       .  S
C1743      C1744   1.410   1_556  A
C1743      C1748   1.399       .  A
C1743      H1750   1.083       .  S
C1744      C1745   1.420       .  A
C1745      C1746   1.404   1_554  A
C1745      N1752   1.438       .  S
C1746      C1747   1.399       .  A
C1746      H1751   1.084       .  S
C1747      C1748   1.412       .  A
C1748      N1749   1.439       .  S
N1749      H1753   1.046       .  S
N1749      H1754   1.043       .  S
N1752      H1755   1.046       .  S
N1752      H1756   1.046       .  S
C1757      C1758   1.404       .  A
C1757      C1762   1.406       .  A
C1757      H1764   1.084       .  S
C1758      C1759   1.423       .  A
C1759      C1760   1.397       .  A
C1759      N1766   1.437       .  S
C1760      C1761   1.398       .  A
C1760      H1765   1.085       .  S
C1761      C1762   1.417       .  A
C1762      N1763   1.438       .  S
N1763      H1767   1.046       .  S
N1763      H1768   1.044       .  S
N1766      H1769   1.036       .  S
N1766      H1770   1.045       .  S
C1771      C1772   1.410       .  A
C1771      C1776   1.412       .  A
C1771      H1778   1.083       .  S
C1772      C1773   1.416       .  A
C1773      C1774   1.397       .  A
C1773      N1780   1.439       .  S
C1774      C1775   1.399       .  A
C1774      H1779   1.084       .  S
C1775      C1776   1.408       .  A
C1776      N1777   1.437       .  S
N1777      H1781   1.046       .  S
N1777      H1782   1.045       .  S
N1780      H1783   1.046       .  S
N1780      H1784   1.046       .  S
C1785      C1786   1.410       .  A
C1785      C1790   1.410       .  A
C1785      H1792   1.084       .  S
C1786      C1787   1.412       .  A
C1787      C1788   1.393       .  A
C1787      N1794   1.433       .  S
C1788      C1789   1.404       .  A
C1788      H1793   1.084       .  S
C1789      C1790   1.406       .  A
C1790      N1791   1.437       .  S
N1791      H1795   1.046       .  S
N1791      H1796   1.046       .  S
N1794      H1797   1.046       .  S
N1794      H1798   1.044       .  S
C1799      C1800   1.397       .  A
C1799      C1804   1.402       .  A
C1799      H1806   1.084       .  S
C1800      C1801   1.408       .  A
C1801      C1802   1.404       .  A
C1801      N1808   1.438       .  S
C1802      C1803   1.407       .  A
C1802      H1807   1.083       .  S
C1803      C1804   1.421       .  A
C1804      N1805   1.438       .  S
N1805      H1809   1.046       .  S
N1805      H1810   1.045       .  S
N1808      H1811   1.046       .  S
N1808      H1812   1.046       .  S
C1813      C1814   1.399       .  A
C1813      C1818   1.403       .  A
C1813      H1820   1.084       .  S
C1814      C1815   1.405       .  A
C1815      C1816   1.401       .  A
C1815      N1822   1.438       .  S
C1816      C1817   1.410       .  A
C1816      H1821   1.083       .  S
C1817      C1818   1.418       .  A
C1818      N1819   1.438       .  S
N1819      H1823   1.046       .  S
N1819      H1824   1.046       .  S
N1822      H1825   1.045       .  S
N1822      H1826   1.046       .  S
C1827      C1828   1.405       .  A
C1827      C1832   1.408       .  A
C1827      H1834   1.084       .  S
C1828      C1829   1.421       .  A
C1829      C1830   1.404       .  A
C1829      N1836   1.439       .  S
C1830      C1831   1.399       .  A
C1830      H1835   1.084       .  S
C1831      C1832   1.407       .  A
C1832      N1833   1.431       .  S
N1833      H1837   1.045       .  S
N1833      H1838   1.046       .  S
N1836      H1839   1.043       .  S
N1836      H1840   1.045       .  S
C1841      C1842   1.399       .  A
C1841      C1846   1.400       .  A
C1841      H1848   1.084       .  S
C1842      C1843   1.410       .  A
C1843      C1844   1.406       .  A
C1843      N1850   1.437       .  S
C1844      C1845   1.403       .  A
C1844      H1849   1.083       .  S
C1845      C1846   1.411       .  A
C1846      N1847   1.438       .  S
N1847      H1851   1.045       .  S
N1847      H1852   1.046       .  S
N1850      H1853   1.046       .  S
N1850      H1854   1.046       .  S
C1855      C1856   1.401       .  A
C1855      C1860   1.405       .  A
C1855      H1862   1.084       .  S
C1856      C1857   1.411       .  A
C1857      C1858   1.408       .  A
C1857      N1864   1.437       .  S
C1858      C1859   1.405       .  A
C1858      H1863   1.083       .  S
C1859      C1860   1.414       .  A
C1860      N1861   1.438       .  S
N1861      H1865   1.045       .  S
N1861      H1866   1.045       .  S
N1864      H1867   1.046       .  S
N1864      H1868   1.046       .  S
C1869      C1870   1.404       .  A
C1869      C1874   1.408       .  A
C1869      H1876   1.084       .  S
C1870      C1871   1.407       .  A
C1871      C1872   1.404       .  A
C1871      N1878   1.438       .  S
C1872      C1873   1.406       .  A
C1872      H1877   1.084       .  S
C1873      C1874   1.412       .  A
C1874      N1875   1.435       .  S
N1875      H1879   1.045       .  S
N1875      H1880   1.042       .  S
N1878      H1881   1.046       .  S
N1878      H1882   1.046       .  S
C1883      C1884   1.406       .  A
C1883      C1888   1.404       .  A
C1883      H1890   1.084       .  S
C1884      C1885   1.415       .  A
C1885      C1886   1.404       .  A
C1885      N1892   1.437       .  S
C1886      C1887   1.403       .  A
C1886      H1891   1.083       .  S
C1887      C1888   1.410       .  A
C1888      N1889   1.433       .  S
N1889      H1893   1.046       .  S
N1889      H1894   1.046       .  S
N1892      H1895   1.045       .  S
N1892      H1896   1.046       .  S
C1897      C1898   1.398       .  A
C1897      C1902   1.394       .  A
C1897      H1904   1.085       .  S
C1898      C1899   1.418       .  A
C1899      C1900   1.409       .  A
C1899      N1906   1.438       .  S
C1900      C1901   1.404       .  A
C1900      H1905   1.084       .  S
C1901      C1902   1.417       .  A
C1902      N1903   1.432       .  S
N1903      H1907   1.044       .  S
N1903      H1908   1.043       .  S
N1906      H1909   1.044       .  S
N1906      H1910   1.046       .  S
C1911      C1912   1.405       .  A
C1911      C1916   1.405       .  A
C1911      H1918   1.082       .  S
C1912      C1913   1.418       .  A
C1913      C1914   1.404       .  A
C1913      N1920   1.433       .  S
C1914      C1915   1.400       .  A
C1914      H1919   1.084       .  S
C1915      C1916   1.419       .  A
C1916      N1917   1.434       .  S
N1917      H1921   1.046       .  S
N1917      H1922   1.039       .  S
N1920      H1923   1.045       .  S
N1920      H1924   1.046       .  S
C1925      C1926   1.408       .  A
C1925      C1930   1.406       .  A
C1925      H1932   1.084       .  S
C1926      C1927   1.418       .  A
C1927      C1928   1.397       .  A
C1927      N1934   1.433       .  S
C1928      C1929   1.403       .  A
C1928      H1933   1.084       .  S
C1929      C1930   1.411       .  A
C1930      N1931   1.438       .  S
N1931      H1935   1.046       .  S
N1931      H1936   1.046       .  S
N1934      H1937   1.046       .  S
N1934      H1938   1.044       .  S
C1939      C1940   1.410       .  A
C1939      C1944   1.405       .  A
C1939      H1946   1.083       .  S
C1940      C1941   1.424       .  A
C1941      C1942   1.407       .  A
C1941      N1948   1.438       .  S
C1942      C1943   1.397       .  A
C1942      H1947   1.084       .  S
C1943      C1944   1.407       .  A
C1944      N1945   1.438       .  S
N1945      H1949   1.046       .  S
N1945      H1950   1.045       .  S
N1948      H1951   1.046       .  S
N1948      H1952   1.046       .  S
C1953      C1954   1.399       .  A
C1953      C1958   1.398       .  A
C1953      H1960   1.085       .  S
C1954      C1955   1.413       .  A
C1955      C1956   1.412       .  A
C1955      N1962   1.438       .  S
C1956      C1957   1.404       .  A
C1956      H1961   1.084       .  S
C1957      C1958   1.420       .  A
C1958      N1959   1.438       .  S
N1959      H1963   1.045       .  S
N1959      H1964   1.039       .  S
N1962      H1965   1.045       .  S
N1962      H1966   1.046       .  S
C1967      C1968   1.407       .  A
C1967      C1972   1.410       .  A
C1967      H1974   1.084       .  S
C1968      C1969   1.417       .  A
C1969      C1970   1.401       .  A
C1969      N1976   1.439       .  S
C1970      C1971   1.404       .  A
C1970      H1975   1.083       .  S
C1971      C1972   1.411       .  A
C1972      N1973   1.437       .  S
N1973      H1977   1.045       .  S
N1973      H1978   1.044       .  S
N1976      H1979   1.042       .  S
N1976      H1980   1.046       .  S
C1981      C1982   1.405       .  A
C1981      C1986   1.401       .  A
C1981      H1988   1.084       .  S
C1982      C1983   1.409       .  A
C1983      C1984   1.407       .  A
C1983      N1990   1.431       .  S
C1984      C1985   1.405       .  A
C1984      H1989   1.084       .  S
C1985      C1986   1.416       .  A
C1986      N1987   1.438       .  S
N1987      H1991   1.046       .  S
N1987      H1992   1.043       .  S
N1990      H1993   1.046       .  S
N1990      H1994   1.045       .  S
C1995      C1996   1.404       .  A
C1995      C2000   1.405       .  A
C1995      H2002   1.084       .  S
C1996      C1997   1.408       .  A
C1997      C1998   1.403       .  A
C1997      N2004   1.438       .  S
C1998      C1999   1.404       .  A
C1998      H2003   1.083       .  S
C1999      C2000   1.417       .  A
C2000      N2001   1.437       .  S
N2001      H2005   1.042       .  S
N2001      H2006   1.045       .  S
N2004      H2007   1.046       .  S
N2004      H2008   1.046       .  S
C2009      C2010   1.397       .  A
C2009      C2014   1.399       .  A
C2009      H2016   1.084       .  S
C2010      C2011   1.414       .  A
C2011      C2012   1.402       .  A
C2011      N2018   1.433       .  S
C2012      C2013   1.401       .  A
C2012      H2017   1.084       .  S
C2013      C2014   1.411       .  A
C2014      N2015   1.432       .  S
N2015      H2019   1.045       .  S
N2015      H2020   1.045       .  S
N2018      H2021   1.045       .  S
N2018      H2022   1.046       .  S
C2023      C2024   1.403       .  A
C2023      C2028   1.398       .  A
C2023      H2030   1.084       .  S
C2024      C2025   1.407       .  A
C2025      C2026   1.403       .  A
C2025      N2032   1.438       .  S
C2026      C2027   1.410       .  A
C2026      H2031   1.084       .  S
C2027      C2028   1.411       .  A
C2028      N2029   1.437       .  S
N2029      H2033   1.046       .  S
N2029      H2034   1.044       .  S
N2032      H2035   1.046       .  S
N2032      H2036   1.046       .  S
C2037      C2038   1.403       .  A
C2037      C2042   1.403       .  A
C2037      H2044   1.084       .  S
C2038      C2039   1.412       .  A
C2039      C2040   1.396       .  A
C2039      N2046   1.439       .  S
C2040      C2041   1.402       .  A
C2040      H2045   1.083       .  S
C2041      C2042   1.416       .  A
C2042      N2043   1.438       .  S
N2043      H2047   1.046       .  S
N2043      H2048   1.043       .  S
N2046      H2049   1.043       .  S
N2046      H2050   1.046       .  S
C2051      C2052   1.399       .  A
C2051      C2056   1.391       .  A
C2051      H2058   1.085       .  S
C2052      C2053   1.417       .  A
C2053      C2054   1.408       .  A
C2053      N2060   1.438       .  S
C2054      C2055   1.404       .  A
C2054      H2059   1.084       .  S
C2055      C2056   1.414       .  A
C2056      N2057   1.433       .  S
N2057      H2061   1.043       .  S
N2057      H2062   1.045       .  S
N2060      H2063   1.044       .  S
N2060      H2064   1.046       .  S
C2065      C2066   1.401       .  A
C2065      C2070   1.406       .  A
C2065      H2072   1.084       .  S
C2066      C2067   1.417       .  A
C2067      C2068   1.395       .  A
C2067      N2074   1.436       .  S
C2068      C2069   1.400       .  A
C2068      H2073   1.084       .  S
C2069      C2070   1.420       .  A
C2070      N2071   1.438       .  S
N2071      H2075   1.046       .  S
N2071      H2076   1.044       .  S
N2074      H2077   1.039       .  S
N2074      H2078   1.046       .  S
C2079      C2080   1.403       .  A
C2079      C2084   1.407       .  A
C2079      H2086   1.084       .  S
C2080      C2081   1.411       .  A
C2081      C2082   1.397       .  A
C2081      N2088   1.439   1_556  S
C2082      C2083   1.398       .  A
C2082      H2087   1.084       .  S
C2083      C2084   1.408       .  A
C2084      N2085   1.437       .  S
N2085      H2089   1.046       .  S
N2085      H2090   1.045       .  S
N2088      H2091   1.045       .  S
N2088      H2092   1.046       .  S
C2093      C2094   1.401       .  A
C2093      C2098   1.403       .  A
C2093      H2100   1.084       .  S
C2094      C2095   1.412       .  A
C2095      C2096   1.411       .  A
C2095      N2102   1.437       .  S
C2096      C2097   1.406       .  A
C2096      H2101   1.083       .  S
C2097      C2098   1.413       .  A
C2098      N2099   1.438       .  S
N2099      H2103   1.045       .  S
N2099      H2104   1.045       .  S
N2102      H2105   1.046       .  S
N2102      H2106   1.046       .  S
C2107      C2108   1.401       .  A
C2107      C2112   1.396       .  A
C2107      H2114   1.084       .  S
C2108      C2109   1.410       .  A
C2109      C2110   1.408       .  A
C2109      N2116   1.437       .  S
C2110      C2111   1.409       .  A
C2110      H2115   1.083       .  S
C2111      C2112   1.421       .  A
C2112      N2113   1.431       .  S
N2113      H2117   1.045       .  S
N2113      H2118   1.042       .  S
N2116      H2119   1.045       .  S
N2116      H2120   1.046       .  S
C2121      C2122   1.405       .  A
C2121      C2126   1.403       .  A
C2121      H2128   1.084       .  S
C2122      C2123   1.415       .  A
C2123      C2124   1.397       .  A
C2123      N2130   1.440       .  S
C2124      C2125   1.403       .  A
C2124      H2129   1.084       .  S
C2125      C2126   1.415       .  A
C2126      N2127   1.438       .  S
N2127      H2131   1.046       .  S
N2127      H2132   1.043       .  S
N2130      H2133   1.043       .  S
N2130      H2134   1.046       .  S
C2135      C2136   1.405       .  A
C2135      C2140   1.408       .  A
C2135      H2142   1.084       .  S
C2136      C2137   1.407       .  A
C2137      C2138   1.406       .  A
C2137      N2144   1.438       .  S
C2138      C2139   1.410       .  A
C2138      H2143   1.084       .  S
C2139      C2140   1.415       .  A
C2140      N2141   1.438       .  S
N2141      H2145   1.046       .  S
N2141      H2146   1.045       .  S
N2144      H2147   1.046       .  S
N2144      H2148   1.046       .  S
C2149      C2150   1.401       .  A
C2149      C2154   1.402       .  A
C2149      H2156   1.084       .  S
C2150      C2151   1.414       .  A
C2151      C2152   1.404       .  A
C2151      N2158   1.432       .  S
C2152      C2153   1.404       .  A
C2152      H2157   1.084       .  S
C2153      C2154   1.420       .  A
C2154      N2155   1.440       .  S
N2155      H2159   1.045       .  S
N2155      H2160   1.043       .  S
N2158      H2161   1.046       .  S
N2158      H2162   1.045       .  S
C2163      C2164   1.398       .  A
C2163      C2168   1.388       .  A
C2163      H2170   1.084       .  S
C2164      C2165   1.413       .  A
C2165      C2166   1.420       .  A
C2165      N2172   1.436       .  S
C2166      C2167   1.413       .  A
C2166      H2171   1.081       .  S
C2167      C2168   1.420       .  A
C2168      N2169   1.433       .  S
N2169      H2173   1.046       .  S
N2169      H2174   1.046       .  S
N2172      H2175   1.045       .  S
N2172      H2176   1.046       .  S
C2177      C2178   1.401       .  A
C2177      C2182   1.396       .  A
C2177      H2184   1.085       .  S
C2178      C2179   1.408       .  A
C2179      C2180   1.409       .  A
C2179      N2186   1.437       .  S
C2180      C2181   1.404       .  A
C2180      H2185   1.084       .  S
C2181      C2182   1.406       .  A
C2182      N2183   1.438       .  S
N2183      H2187   1.046       .  S
N2183      H2188   1.045       .  S
N2186      H2189   1.046   1_655  S
N2186      H2190   1.046       .  S
C2191      C2192   1.405       .  A
C2191      C2196   1.394       .  A
C2191      H2198   1.083       .  S
C2192      C2193   1.421       .  A
C2193      C2194   1.408       .  A
C2193      N2200   1.437       .  S
C2194      C2195   1.398       .  A
C2194      H2199   1.084       .  S
C2195      C2196   1.415       .  A
C2196      N2197   1.440       .  S
N2197      H2201   1.045       .  S
N2197      H2202   1.043       .  S
N2200      H2203   1.046       .  S
N2200      H2204   1.046       .  S
C2205      C2206   1.406       .  A
C2205      C2210   1.398       .  A
C2205      H2212   1.084       .  S
C2206      C2207   1.413       .  A
C2207      C2208   1.400       .  A
C2207      N2214   1.433       .  S
C2208      C2209   1.400       .  A
C2208      H2213   1.084       .  S
C2209      C2210   1.412       .  A
C2210      N2211   1.438       .  S
N2211      H2215   1.046       .  S
N2211      H2216   1.044       .  S
N2214      H2217   1.046       .  S
N2214      H2218   1.046       .  S
C2219      C2220   1.405       .  A
C2219      C2224   1.418       .  A
C2219      H2226   1.083       .  S
C2220      C2221   1.403       .  A
C2221      C2222   1.391       .  A
C2221      N2228   1.434       .  S
C2222      C2223   1.407       .  A
C2222      H2227   1.084       .  S
C2223      C2224   1.418       .  A
C2224      N2225   1.436       .  S
N2225      H2229   1.046       .  S
N2225      H2230   1.046       .  S
N2228      H2231   1.046       .  S
N2228      H2232   1.045       .  S
C2233      C2234   1.397       .  A
C2233      C2238   1.404       .  A
C2233      H2240   1.084       .  S
C2234      C2235   1.408       .  A
C2235      C2236   1.406       .  A
C2235      N2242   1.438       .  S
C2236      C2237   1.410       .  A
C2236      H2241   1.083       .  S
C2237      C2238   1.423       .  A
C2238      N2239   1.437       .  S
N2239      H2243   1.046       .  S
N2239      H2244   1.043       .  S
N2242      H2245   1.045       .  S
N2242      H2246   1.046       .  S
C2247      C2248   1.409       .  A
C2247      C2252   1.408       .  A
C2247      H2254   1.084       .  S
C2248      C2249   1.415       .  A
C2249      C2250   1.398       .  A
C2249      N2256   1.440       .  S
C2250      C2251   1.407       .  A
C2250      H2255   1.083       .  S
C2251      C2252   1.407       .  A
C2252      N2253   1.432       .  S
N2253      H2257   1.045       .  S
N2253      H2258   1.046       .  S
N2256      H2259   1.042       .  S
N2256      H2260   1.046       .  S
C2261      C2262   1.409       .  A
C2261      C2266   1.407       .  A
C2261      H2268   1.084       .  S
C2262      C2263   1.424       .  A
C2263      C2264   1.403       .  A
C2263      N2270   1.430       .  S
C2264      C2265   1.399       .  A
C2264      H2269   1.084       .  S
C2265      C2266   1.410       .  A
C2266      N2267   1.438       .  S
N2267      H2271   1.046       .  S
N2267      H2272   1.046       .  S
N2270      H2273   1.045       .  S
N2270      H2274   1.044       .  S
C2275      C2276   1.401       .  A
C2275      C2280   1.409       .  A
C2275      H2282   1.084       .  S
C2276      C2277   1.417       .  A
C2277      C2278   1.396       .  A
C2277      N2284   1.433       .  S
C2278      C2279   1.399       .  A
C2278      H2283   1.084       .  S
C2279      C2280   1.416       .  A
C2280      N2281   1.437       .  S
N2281      H2285   1.046       .  S
N2281      H2286   1.045       .  S
N2284      H2287   1.039       .  S
N2284      H2288   1.045       .  S
C2289      C2290   1.404       .  A
C2289      C2294   1.403       .  A
C2289      H2296   1.083       .  S
C2290      C2291   1.418       .  A
C2291      C2292   1.409       .  A
C2291      N2298   1.438       .  S
C2292      C2293   1.400       .  A
C2292      H2297   1.084       .  S
C2293      C2294   1.410       .  A
C2294      N2295   1.436       .  S
N2295      H2299   1.046       .  S
N2295      H2300   1.045       .  S
N2298      H2301   1.045       .  S
N2298      H2302   1.046       .  S
C2303      C2304   1.404       .  A
C2303      C2308   1.397       .  A
C2303      H2310   1.084       .  S
C2304      C2305   1.421       .  A
C2305      C2306   1.403       .  A
C2305      N2312   1.437       .  S
C2306      C2307   1.401       .  A
C2306      H2311   1.084       .  S
C2307      C2308   1.415       .  A
C2308      N2309   1.438       .  S
N2309      H2313   1.046       .  S
N2309      H2314   1.042       .  S
N2312      H2315   1.043       .  S
N2312      H2316   1.046       .  S
C2317      C2318   1.403       .  A
C2317      C2322   1.401       .  A
C2317      H2324   1.084       .  S
C2318      C2319   1.415       .  A
C2319      C2320   1.407       .  A
C2319      N2326   1.437       .  S
C2320      C2321   1.406       .  A
C2320      H2325   1.084       .  S
C2321      C2322   1.416       .  A
C2322      N2323   1.439       .  S
N2323      H2327   1.046       .  S
N2323      H2328   1.043       .  S
N2326      H2329   1.043       .  S
N2326      H2330   1.045       .  S
C2331      C2332   1.400       .  A
C2331      C2336   1.404       .  A
C2331      H2338   1.083       .  S
C2332      C2333   1.419       .  A
C2333      C2334   1.401       .  A
C2333      N2340   1.440       .  S
C2334      C2335   1.399       .  A
C2334      H2339   1.084       .  S
C2335      C2336   1.419       .  A
C2336      N2337   1.438       .  S
N2337      H2341   1.046       .  S
N2337      H2342   1.043       .  S
N2340      H2343   1.043       .  S
N2340      H2344   1.045       .  S
C2345      C2346   1.403       .  A
C2345      C2350   1.407       .  A
C2345      H2352   1.084       .  S
C2346      C2347   1.420       .  A
C2347      C2348   1.403       .  A
C2347      N2354   1.439       .  S
C2348      C2349   1.401       .  A
C2348      H2353   1.084       .  S
C2349      C2350   1.420       .  A
C2350      N2351   1.438       .  S
N2351      H2355   1.046       .  S
N2351      H2356   1.043       .  S
N2354      H2357   1.043       .  S
N2354      H2358   1.045       .  S
C2359      C2360   1.401       .  A
C2359      C2364   1.402       .  A
C2359      H2366   1.084       .  S
C2360      C2361   1.416       .  A
C2361      C2362   1.402       .  A
C2361      N2368   1.432       .  S
C2362      C2363   1.402       .  A
C2362      H2367   1.083       .  S
C2363      C2364   1.409       .  A
C2364      N2365   1.433       .  S
N2365      H2369   1.045       .  S
N2365      H2370   1.045       .  S
N2368      H2371   1.046       .  S
N2368      H2372   1.044       .  S
C2373      C2374   1.399       .  A
C2373      C2378   1.406       .  A
C2373      H2380   1.084       .  S
C2374      C2375   1.417       .  A
C2375      C2376   1.398       .  A
C2375      N2382   1.439       .  S
C2376      C2377   1.403       .  A
C2376      H2381   1.084       .  S
C2377      C2378   1.419       .  A
C2378      N2379   1.437       .  S
N2379      H2383   1.046       .  S
N2379      H2384   1.046       .  S
N2382      H2385   1.043       .  S
N2382      H2386   1.045       .  S
C2387      C2388   1.398       .  A
C2387      C2392   1.405       .  A
C2387      H2394   1.084       .  S
C2388      C2389   1.413       .  A
C2389      C2390   1.395       .  A
C2389      N2396   1.440       .  S
C2390      C2391   1.406       .  A
C2390      H2395   1.084       .  S
C2391      C2392   1.422       .  A
C2392      N2393   1.438       .  S
N2393      H2397   1.046       .  S
N2393      H2398   1.045       .  S
N2396      H2399   1.043       .  S
N2396      H2400   1.046       .  S
C2401      C2402   1.408       .  A
C2401      C2406   1.396       .  A
C2401      H2408   1.081       .  S
C2402      C2403   1.426       .  A
C2403      C2404   1.400       .  A
C2403      N2410   1.438       .  S
C2404      C2405   1.397       .  A
C2404      H2409   1.084       .  S
C2405      C2406   1.407       .  A
C2406      N2407   1.430       .  S
N2407      H2411   1.038       .  S
N2407      H2412   1.045       .  S
N2410      H2413   1.044       .  S
N2410      H2414   1.045       .  S
C2415      C2416   1.400       .  A
C2415      C2420   1.407       .  A
C2415      H2422   1.084       .  S
C2416      C2417   1.412       .  A
C2417      C2418   1.397       .  A
C2417      N2424   1.440       .  S
C2418      C2419   1.410       .  A
C2418      H2423   1.083       .  S
C2419      C2420   1.420       .  A
C2420      N2421   1.438   1_556  S
N2421      H2425   1.046       .  S
N2421      H2426   1.045       .  S
N2424      H2427   1.043       .  S
N2424      H2428   1.046       .  S
C2429      C2430   1.407       .  A
C2429      C2434   1.412       .  A
C2429      H2436   1.084       .  S
C2430      C2431   1.407       .  A
C2431      C2432   1.402       .  A
C2431      N2438   1.439       .  S
C2432      C2433   1.408       .  A
C2432      H2437   1.083       .  S
C2433      C2434   1.412       .  A
C2434      N2435   1.437       .  S
N2435      H2439   1.046       .  S
N2435      H2440   1.045       .  S
N2438      H2441   1.046       .  S
N2438      H2442   1.045       .  S
C2443      C2444   1.407       .  A
C2443      C2448   1.407       .  A
C2443      H2450   1.084       .  S
C2444      C2445   1.410       .  A
C2445      C2446   1.399       .  A
C2445      N2452   1.439       .  S
C2446      C2447   1.407       .  A
C2446      H2451   1.084       .  S
C2447      C2448   1.411       .  A
C2448      N2449   1.437       .  S
N2449      H2453   1.046       .  S
N2449      H2454   1.045   1_556  S
N2452      H2455   1.046       .  S
N2452      H2456   1.046       .  S
C2457      C2458   1.398       .  A
C2457      C2462   1.399       .  A
C2457      H2464   1.084       .  S
C2458      C2459   1.419       .  A
C2459      C2460   1.407       .  A
C2459      N2466   1.438       .  S
C2460      C2461   1.405       .  A
C2460      H2465   1.084       .  S
C2461      C2462   1.421       .  A
C2462      N2463   1.438       .  S
N2463      H2467   1.043       .  S
N2463      H2468   1.042       .  S
N2466      H2469   1.043       .  S
N2466      H2470   1.046       .  S
C2471      C2472   1.401       .  A
C2471      C2476   1.396       .  A
C2471      H2478   1.084       .  S
C2472      C2473   1.410       .  A
C2473      C2474   1.413       .  A
C2473      N2480   1.437       .  S
C2474      C2475   1.408       .  A
C2474      H2479   1.083       .  S
C2475      C2476   1.413       .  A
C2476      N2477   1.434       .  S
N2477      H2481   1.046       .  S
N2477      H2482   1.046       .  S
N2480      H2483   1.046       .  S
N2480      H2484   1.046       .  S
C2485      C2486   1.401       .  A
C2485      C2490   1.401       .  A
C2485      H2492   1.084       .  S
C2486      C2487   1.415       .  A
C2487      C2488   1.404       .  A
C2487      N2494   1.438       .  S
C2488      C2489   1.404       .  A
C2488      H2493   1.084       .  S
C2489      C2490   1.410       .  A
C2490      N2491   1.438       .  S
N2491      H2495   1.046       .  S
N2491      H2496   1.045       .  S
N2494      H2497   1.044       .  S
N2494      H2498   1.046       .  S
C2499      C2500   1.404       .  A
C2499      C2504   1.409       .  A
C2499      H2506   1.084       .  S
C2500      C2501   1.409       .  A
C2501      C2502   1.401       .  A
C2501      N2508   1.438       .  S
C2502      C2503   1.401       .  A
C2502      H2507   1.084       .  S
C2503      C2504   1.411       .  A
C2504      N2505   1.438       .  S
N2505      H2509   1.046       .  S
N2505      H2510   1.045       .  S
N2508      H2511   1.045       .  S
N2508      H2512   1.046       .  S
C2513      C2514   1.404       .  A
C2513      C2518   1.396       .  A
C2513      H2520   1.084       .  S
C2514      C2515   1.411       .  A
C2515      C2516   1.409       .  A
C2515      N2522   1.437       .  S
C2516      C2517   1.405       .  A
C2516      H2521   1.084       .  S
C2517      C2518   1.415       .  A
C2518      N2519   1.439       .  S
N2519      H2523   1.045       .  S
N2519      H2524   1.043       .  S
N2522      H2525   1.046       .  S
N2522      H2526   1.046       .  S
C2527      C2528   1.403       .  A
C2527      C2532   1.403       .  A
C2527      H2534   1.084       .  S
C2528      C2529   1.407       .  A
C2529      C2530   1.403       .  A
C2529      N2536   1.438       .  S
C2530      C2531   1.410       .  A
C2530      H2535   1.084       .  S
C2531      C2532   1.414       .  A
C2532      N2533   1.437       .  S
N2533      H2537   1.046       .  S
N2533      H2538   1.045       .  S
N2536      H2539   1.046       .  S
N2536      H2540   1.046       .  S
C2541      C2542   1.403       .  A
C2541      C2546   1.401       .  A
C2541      H2548   1.084       .  S
C2542      C2543   1.412       .  A
C2543      C2544   1.398       .  A
C2543      N2550   1.438       .  S
C2544      C2545   1.399       .  A
C2544      H2549   1.084       .  S
C2545      C2546   1.414       .  A
C2546      N2547   1.438       .  S
N2547      H2551   1.046       .  S
N2547      H2552   1.044       .  S
N2550      H2553   1.044       .  S
N2550      H2554   1.046       .  S
C2555      C2556   1.403       .  A
C2555      C2560   1.411       .  A
C2555      H2562   1.083       .  S
C2556      C2557   1.411       .  A
C2557      C2558   1.398       .  A
C2557      N2564   1.432       .  S
C2558      C2559   1.396       .  A
C2558      H2563   1.084       .  S
C2559      C2560   1.412       .  A
C2560      N2561   1.437       .  S
N2561      H2565   1.046       .  S
N2561      H2566   1.046       .  S
N2564      H2567   1.045       .  S
N2564      H2568   1.045       .  S
C2569      C2570   1.401       .  A
C2569      C2574   1.406       .  A
C2569      H2576   1.084       .  S
C2570      C2571   1.418       .  A
C2571      C2572   1.402       .  A
C2571      N2578   1.439       .  S
C2572      C2573   1.403       .  A
C2572      H2577   1.078       .  S
C2573      C2574   1.422       .  A
C2574      N2575   1.439       .  S
N2575      H2579   1.045       .  S
N2575      H2580   1.043       .  S
N2578      H2581   1.042       .  S
N2578      H2582   1.046       .  S
C2583      C2584   1.403       .  A
C2583      C2588   1.399       .  A
C2583      H2590   1.084       .  S
C2584      C2585   1.410       .  A
C2585      C2586   1.410       .  A
C2585      N2592   1.436       .  S
C2586      C2587   1.405       .  A
C2586      H2591   1.084       .  S
C2587      C2588   1.414       .  A
C2588      N2589   1.439       .  S
N2589      H2593   1.046       .  S
N2589      H2594   1.043       .  S
N2592      H2595   1.042       .  S
N2592      H2596   1.045       .  S
C2597      C2598   1.400       .  A
C2597      C2602   1.409       .  A
C2597      H2604   1.084       .  S
C2598      C2599   1.411       .  A
C2599      C2600   1.399       .  A
C2599      N2606   1.439       .  S
C2600      C2601   1.399       .  A
C2600      H2605   1.084       .  S
C2601      C2602   1.416       .  A
C2602      N2603   1.438       .  S
N2603      H2607   1.046       .  S
N2603      H2608   1.046       .  S
N2606      H2609   1.045       .  S
N2606      H2610   1.046       .  S
C2611      C2612   1.401       .  A
C2611      C2616   1.394       .  A
C2611      H2618   1.083       .  S
C2612      C2613   1.409       .  A
C2613      C2614   1.406       .  A
C2613      N2620   1.432       .  S
C2614      C2615   1.413       .  A
C2614      H2619   1.083       .  S
C2615      C2616   1.419       .  A
C2616      N2617   1.439       .  S
N2617      H2621   1.046       .  S
N2617      H2622   1.046       .  S
N2620      H2623   1.045       .  S
N2620      H2624   1.044       .  S
C2625      C2626   1.403       .  A
C2625      C2630   1.402       .  A
C2625      H2632   1.084       .  S
C2626      C2627   1.414       .  A
C2627      C2628   1.399       .  A
C2627      N2634   1.438       .  S
C2628      C2629   1.405       .  A
C2628      H2633   1.085       .  S
C2629      C2630   1.417       .  A
C2630      N2631   1.435       .  S
N2631      H2635   1.045       .  S
N2631      H2636   1.040       .  S
N2634      H2637   1.043       .  S
N2634      H2638   1.046       .  S
C2639      C2640   1.405       .  A
C2639      C2644   1.394       .  A
C2639      H2646   1.084       .  S
C2640      C2641   1.409       .  A
C2641      C2642   1.413       .  A
C2641      N2648   1.437       .  S
C2642      C2643   1.415       .  A
C2642      H2647   1.083       .  S
C2643      C2644   1.413       .  A
C2644      N2645   1.433   1_556  S
N2645      H2649   1.046       .  S
N2645      H2650   1.046       .  S
N2648      H2651   1.045       .  S
N2648      H2652   1.046       .  S
C2653      C2654   1.402       .  A
C2653      C2658   1.395       .  A
C2653      H2660   1.085       .  S
C2654      C2655   1.415       .  A
C2655      C2656   1.400       .  A
C2655      N2662   1.438       .  S
C2656      C2657   1.402       .  A
C2656      H2661   1.084       .  S
C2657      C2658   1.414       .  A
C2658      N2659   1.439       .  S
N2659      H2663   1.045   1_556  S
N2659      H2664   1.043   1_556  S
N2662      H2665   1.044       .  S
N2662      H2666   1.046       .  S
C2667      C2668   1.405       .  A
C2667      C2672   1.403       .  A
C2667      H2674   1.084       .  S
C2668      C2669   1.414       .  A
C2669      C2670   1.400       .  A
C2669      N2676   1.439       .  S
C2670      C2671   1.403       .  A
C2670      H2675   1.084       .  S
C2671      C2672   1.414       .  A
C2672      N2673   1.437       .  S
N2673      H2677   1.046       .  S
N2673      H2678   1.043       .  S
N2676      H2679   1.043       .  S
N2676      H2680   1.046       .  S
C2681      C2682   1.401       .  A
C2681      C2686   1.398       .  A
C2681      H2688   1.082       .  S
C2682      C2683   1.412       .  A
C2683      C2684   1.406       .  A
C2683      N2690   1.438       .  S
C2684      C2685   1.419       .  A
C2684      H2689   1.083       .  S
C2685      C2686   1.422       .  A
C2686      N2687   1.426       .  S
N2687      H2691   1.044       .  S
N2687      H2692   1.044       .  S
N2690      H2693   1.043       .  S
N2690      H2694   1.045       .  S
C2695      C2696   1.403       .  A
C2695      C2700   1.405       .  A
C2695      H2702   1.084       .  S
C2696      C2697   1.414       .  A
C2697      C2698   1.393       .  A
C2697      N2704   1.433       .  S
C2698      C2699   1.399       .  A
C2698      H2703   1.085       .  S
C2699      C2700   1.416       .  A
C2700      N2701   1.438       .  S
N2701      H2705   1.046       .  S
N2701      H2706   1.044       .  S
N2704      H2707   1.043       .  S
N2704      H2708   1.044       .  S
C2709      C2710   1.399       .  A
C2709      C2714   1.398       .  A
C2709      H2716   1.084       .  S
C2710      C2711   1.411       .  A
C2711      C2712   1.401       .  A
C2711      N2718   1.438       .  S
C2712      C2713   1.407       .  A
C2712      H2717   1.084       .  S
C2713      C2714   1.411       .  A
C2714      N2715   1.433       .  S
N2715      H2719   1.046       .  S
N2715      H2720   1.046       .  S
N2718      H2721   1.044       .  S
N2718      H2722   1.046       .  S
C2723      C2724   1.396       .  A
C2723      C2728   1.401       .  A
C2723      H2730   1.084       .  S
C2724      C2725   1.414       .  A
C2725      C2726   1.404       .  A
C2725      N2732   1.438       .  S
C2726      C2727   1.398       .  A
C2726      H2731   1.083       .  S
C2727      C2728   1.414       .  A
C2728      N2729   1.439       .  S
N2729      H2733   1.045       .  S
N2729      H2734   1.042       .  S
N2732      H2735   1.046       .  S
N2732      H2736   1.046       .  S
C2737      C2738   1.414       .  A
C2737      C2742   1.402       .  A
C2737      H2744   1.083       .  S
C2738      C2739   1.417       .  A
C2739      C2740   1.401       .  A
C2739      N2746   1.432       .  S
C2740      C2741   1.395       .  A
C2740      H2745   1.082       .  S
C2741      C2742   1.411       .  A
C2742      N2743   1.438       .  S
N2743      H2747   1.045       .  S
N2743      H2748   1.043       .  S
N2746      H2749   1.045       .  S
N2746      H2750   1.044       .  S
C2751      C2752   1.400       .  A
C2751      C2756   1.401       .  A
C2751      H2758   1.084       .  S
C2752      C2753   1.408       .  A
C2753      C2754   1.393       .  A
C2753      N2760   1.433       .  S
C2754      C2755   1.409       .  A
C2754      H2759   1.084       .  S
C2755      C2756   1.417       .  A
C2756      N2757   1.438       .  S
N2757      H2761   1.046       .  S
N2757      H2762   1.046       .  S
N2760      H2763   1.046       .  S
N2760      H2764   1.044       .  S
C2765      C2766   1.400       .  A
C2765      C2770   1.403       .  A
C2765      H2772   1.084       .  S
C2766      C2767   1.415       .  A
C2767      C2768   1.401       .  A
C2767      N2774   1.433       .  S
C2768      C2769   1.403       .  A
C2768      H2773   1.083       .  S
C2769      C2770   1.420       .  A
C2770      N2771   1.439       .  S
N2771      H2775   1.045       .  S
N2771      H2776   1.043       .  S
N2774      H2777   1.046       .  S
N2774      H2778   1.044       .  S
C2779      C2780   1.396       .  A
C2779      C2784   1.400       .  A
C2779      H2786   1.084       .  S
C2780      C2781   1.409       .  A
C2781      C2782   1.413       .  A
C2781      N2788   1.437       .  S
C2782      C2783   1.410       .  A
C2782      H2787   1.083       .  S
C2783      C2784   1.421       .  A
C2784      N2785   1.433       .  S
N2785      H2789   1.046       .  S
N2785      H2790   1.046       .  S
N2788      H2791   1.045       .  S
N2788      H2792   1.046       .  S
C2793      C2794   1.399       .  A
C2793      C2798   1.404       .  A
C2793      H2800   1.084       .  S
C2794      C2795   1.411       .  A
C2795      C2796   1.400       .  A
C2795      N2802   1.439       .  S
C2796      C2797   1.410       .  A
C2796      H2801   1.083       .  S
C2797      C2798   1.421       .  A
C2798      N2799   1.438       .  S
N2799      H2803   1.046       .  S
N2799      H2804   1.046       .  S
N2802      H2805   1.043       .  S
N2802      H2806   1.046       .  S
C2807      C2808   1.397       .  A
C2807      C2812   1.402       .  A
C2807      H2814   1.084       .  S
C2808      C2809   1.405       .  A
C2809      C2810   1.394       .  A
C2809      N2816   1.433       .  S
C2810      C2811   1.403       .  A
C2810      H2815   1.084       .  S
C2811      C2812   1.416       .  A
C2812      N2813   1.438       .  S
N2813      H2817   1.046       .  S
N2813      H2818   1.044       .  S
N2816      H2819   1.045       .  S
N2816      H2820   1.046       .  S
C2821      C2822   1.403       .  A
C2821      C2826   1.388       .  A
C2821      H2828   1.084       .  S
C2822      C2823   1.409       .  A
C2823      C2824   1.411       .  A
C2823      N2830   1.437       .  S
C2824      C2825   1.410       .  A
C2824      H2829   1.084       .  S
C2825      C2826   1.417       .  A
C2826      N2827   1.434       .  S
N2827      H2831   1.044       .  S
N2827      H2832   1.046       .  S
N2830      H2833   1.045       .  S
N2830      H2834   1.046       .  S
C2835      C2836   1.402       .  A
C2835      C2840   1.404       .  A
C2835      H2842   1.084       .  S
C2836      C2837   1.419       .  A
C2837      C2838   1.402       .  A
C2837      N2844   1.439       .  S
C2838      C2839   1.401       .  A
C2838      H2843   1.083       .  S
C2839      C2840   1.410       .  A
C2840      N2841   1.438       .  S
N2841      H2845   1.045       .  S
N2841      H2846   1.046       .  S
N2844      H2847   1.043       .  S
N2844      H2848   1.046       .  S
C2849      C2850   1.402       .  A
C2849      C2854   1.407       .  A
C2849      H2856   1.084       .  S
C2850      C2851   1.407       .  A
C2851      C2852   1.399       .  A
C2851      N2858   1.433       .  S
C2852      C2853   1.406       .  A
C2852      H2857   1.084       .  S
C2853      C2854   1.419       .  A
C2854      N2855   1.438       .  S
N2855      H2859   1.046       .  S
N2855      H2860   1.045       .  S
N2858      H2861   1.046       .  S
N2858      H2862   1.046       .  S
C2863      C2864   1.406       .  A
C2863      C2868   1.402       .  A
C2863      H2870   1.084       .  S
C2864      C2865   1.410       .  A
C2865      C2866   1.401       .  A
C2865      N2872   1.439       .  S
C2866      C2867   1.405       .  A
C2866      H2871   1.083       .  S
C2867      C2868   1.417       .  A
C2868      N2869   1.437       .  S
N2869      H2873   1.045   1_556  S
N2869      H2874   1.042   1_556  S
N2872      H2875   1.046       .  S
N2872      H2876   1.046       .  S
C2877      C2878   1.405       .  A
C2877      C2882   1.403       .  A
C2877      H2884   1.084       .  S
C2878      C2879   1.409       .  A
C2879      C2880   1.398       .  A
C2879      N2886   1.439       .  S
C2880      C2881   1.401       .  A
C2880      H2885   1.085       .  S
C2881      C2882   1.413       .  A
C2882      N2883   1.438   1_565  S
N2883      H2887   1.046       .  S
N2883      H2888   1.044       .  S
N2886      H2889   1.046       .  S
N2886      H2890   1.046       .  S
C2891      C2892   1.409       .  A
C2891      C2896   1.410       .  A
C2891      H2898   1.084       .  S
C2892      C2893   1.408       .  A
C2893      C2894   1.399       .  A
C2893      N2900   1.432       .  S
C2894      C2895   1.400       .  A
C2894      H2899   1.072       .  S
C2895      C2896   1.421       .  A
C2896      N2897   1.439       .  S
N2897      H2901   1.046       .  S
N2897      H2902   1.042       .  S
N2900      H2903   1.046       .  S
N2900      H2904   1.045       .  S
C2905      C2906   1.405       .  A
C2905      C2910   1.412       .  A
C2905      H2912   1.083       .  S
C2906      C2907   1.409       .  A
C2907      C2908   1.405       .  A
C2907      N2914   1.438       .  S
C2908      C2909   1.404       .  A
C2908      H2913   1.082       .  S
C2909      C2910   1.414       .  A
C2910      N2911   1.436       .  S
N2911      H2915   1.045       .  S
N2911      H2916   1.044       .  S
N2914      H2917   1.046       .  S
N2914      H2918   1.046       .  S
C2919      C2920   1.399       .  A
C2919      C2924   1.392       .  A
C2919      H2926   1.085       .  S
C2920      C2921   1.407       .  A
C2921      C2922   1.416       .  A
C2921      N2928   1.436       .  S
C2922      C2923   1.414       .  A
C2922      H2927   1.083       .  S
C2923      C2924   1.415       .  A
C2924      N2925   1.431       .  S
N2925      H2929   1.046       .  S
N2925      H2930   1.046       .  S
N2928      H2931   1.045       .  S
N2928      H2932   1.046       .  S
C2933      C2934   1.401       .  A
C2933      C2938   1.405       .  A
C2933      H2940   1.084       .  S
C2934      C2935   1.412       .  A
C2935      C2936   1.400       .  A
C2935      N2942   1.439       .  S
C2936      C2937   1.410       .  A
C2936      H2941   1.083       .  S
C2937      C2938   1.420       .  A
C2938      N2939   1.438       .  S
N2939      H2943   1.046       .  S
N2939      H2944   1.046       .  S
N2942      H2945   1.044       .  S
N2942      H2946   1.046       .  S
C2947      C2948   1.411       .  A
C2947      C2952   1.405       .  A
C2947      H2954   1.084       .  S
C2948      C2949   1.410       .  A
C2949      C2950   1.398       .  A
C2949      N2956   1.433       .  S
C2950      C2951   1.400       .  A
C2950      H2955   1.082       .  S
C2951      C2952   1.403       .  A
C2952      N2953   1.437       .  S
N2953      H2957   1.046       .  S
N2953      H2958   1.046       .  S
N2956      H2959   1.046       .  S
N2956      H2960   1.046       .  S
C2961      C2962   1.398       .  A
C2961      C2966   1.396       .  A
C2961      H2968   1.084       .  S
C2962      C2963   1.411       .  A
C2963      C2964   1.401       .  A
C2963      N2970   1.433       .  S
C2964      C2965   1.401       .  A
C2964      H2969   1.084   1_565  S
C2965      C2966   1.420       .  A
C2966      N2967   1.433       .  S
N2967      H2971   1.043       .  S
N2967      H2972   1.046       .  S
N2970      H2973   1.045       .  S
N2970      H2974   1.046       .  S
C2975      C2976   1.405       .  A
C2975      C2980   1.403       .  A
C2975      H2982   1.084       .  S
C2976      C2977   1.411       .  A
C2977      C2978   1.397       .  A
C2977      N2984   1.433       .  S
C2978      C2979   1.403       .  A
C2978      H2983   1.084       .  S
C2979      C2980   1.414       .  A
C2980      N2981   1.437       .  S
N2981      H2985   1.046       .  S
N2981      H2986   1.043       .  S
N2984      H2987   1.044       .  S
N2984      H2988   1.046       .  S
C2989      C2990   1.397       .  A
C2989      C2994   1.399       .  A
C2989      H2996   1.084       .  S
C2990      C2991   1.412       .  A
C2991      C2992   1.412       .  A
C2991      N2998   1.437       .  S
C2992      C2993   1.403       .  A
C2992      H2997   1.084       .  S
C2993      C2994   1.414       .  A
C2994      N2995   1.439       .  S
N2995      H2999   1.046       .  S
N2995      H3000   1.043       .  S
N2998      H3001   1.045       .  S
N2998      H3002   1.046       .  S
C3003      C3004   1.407       .  A
C3003      C3008   1.405       .  A
C3003      H3010   1.084       .  S
C3004      C3005   1.410       .  A
C3005      C3006   1.409       .  A
C3005      N3012   1.432       .  S
C3006      C3007   1.407       .  A
C3006      H3011   1.084       .  S
C3007      C3008   1.412       .  A
C3008      N3009   1.438       .  S
N3009      H3013   1.046   1_655  S
N3009      H3014   1.046   1_655  S
N3012      H3015   1.046       .  S
N3012      H3016   1.045       .  S
C3017      C3018   1.404       .  A
C3017      C3022   1.405       .  A
C3017      H3024   1.084       .  S
C3018      C3019   1.406       .  A
C3019      C3020   1.405       .  A
C3019      N3026   1.438       .  S
C3020      C3021   1.406       .  A
C3020      H3025   1.083       .  S
C3021      C3022   1.417       .  A
C3022      N3023   1.436       .  S
N3023      H3027   1.046       .  S
N3023      H3028   1.043       .  S
N3026      H3029   1.046       .  S
N3026      H3030   1.046       .  S
C3031      C3032   1.405       .  A
C3031      C3036   1.400   1_556  A
C3031      H3038   1.085       .  S
C3032      C3033   1.411       .  A
C3033      C3034   1.397       .  A
C3033      N3040   1.439       .  S
C3034      C3035   1.410   1_556  A
C3034      H3039   1.084       .  S
C3035      C3036   1.417       .  A
C3036      N3037   1.440       .  S
N3037      H3041   1.046       .  S
N3037      H3042   1.042       .  S
N3040      H3043   1.042       .  S
N3040      H3044   1.046       .  S
C3045      C3046   1.401       .  A
C3045      C3050   1.401       .  A
C3045      H3052   1.083       .  S
C3046      C3047   1.415       .  A
C3047      C3048   1.402       .  A
C3047      N3054   1.433       .  S
C3048      C3049   1.397       .  A
C3048      H3053   1.084       .  S
C3049      C3050   1.408       .  A
C3050      N3051   1.434       .  S
N3051      H3055   1.045       .  S
N3051      H3056   1.045       .  S
N3054      H3057   1.045       .  S
N3054      H3058   1.046       .  S
C3059      C3060   1.404       .  A
C3059      C3064   1.404       .  A
C3059      H3066   1.084       .  S
C3060      C3061   1.414       .  A
C3061      C3062   1.400       .  A
C3061      N3068   1.433       .  S
C3062      C3063   1.405       .  A
C3062      H3067   1.084       .  S
C3063      C3064   1.411       .  A
C3064      N3065   1.430       .  S
N3065      H3069   1.044       .  S
N3065      H3070   1.045       .  S
N3068      H3071   1.046       .  S
N3068      H3072   1.043       .  S
C3073      C3074   1.402       .  A
C3073      C3078   1.402       .  A
C3073      H3080   1.084       .  S
C3074      C3075   1.423       .  A
C3075      C3076   1.399       .  A
C3075      N3082   1.440       .  S
C3076      C3077   1.396       .  A
C3076      H3081   1.084       .  S
C3077      C3078   1.413       .  A
C3078      N3079   1.432       .  S
N3079      H3083   1.046       .  S
N3079      H3084   1.045       .  S
N3082      H3085   1.041       .  S
N3082      H3086   1.045       .  S
C3087      C3088   1.412       .  A
C3087      C3092   1.400       .  A
C3087      H3094   1.074       .  S
C3088      C3089   1.422       .  A
C3089      C3090   1.399       .  A
C3089      N3096   1.427       .  S
C3090      C3091   1.398       .  A
C3090      H3095   1.082       .  S
C3091      C3092   1.415       .  A
C3092      N3093   1.434       .  S
N3093      H3097   1.041       .  S
N3093      H3098   1.045       .  S
N3096      H3099   1.046       .  S
N3096      H3100   1.046       .  S
C3101      C3102   1.400       .  A
C3101      C3106   1.402       .  A
C3101      H3108   1.084       .  S
C3102      C3103   1.420       .  A
C3103      C3104   1.396       .  A
C3103      N3110   1.440       .  S
C3104      C3105   1.397       .  A
C3104      H3109   1.084       .  S
C3105      C3106   1.418       .  A
C3106      N3107   1.439       .  S
N3107      H3111   1.046       .  S
N3107      H3112   1.043       .  S
N3110      H3113   1.041       .  S
N3110      H3114   1.046       .  S
C3115      C3116   1.405       .  A
C3115      C3120   1.401       .  A
C3115      H3122   1.084       .  S
C3116      C3117   1.405       .  A
C3117      C3118   1.404       .  A
C3117      N3124   1.432       .  S
C3118      C3119   1.407       .  A
C3118      H3123   1.083       .  S
C3119      C3120   1.412       .  A
C3120      N3121   1.439       .  S
N3121      H3125   1.046       .  S
N3121      H3126   1.045       .  S
N3124      H3127   1.045       .  S
N3124      H3128   1.045       .  S
C3129      C3130   1.408       .  A
C3129      C3134   1.410       .  A
C3129      H3136   1.081       .  S
C3130      C3131   1.420       .  A
C3131      C3132   1.400       .  A
C3131      N3138   1.434       .  S
C3132      C3133   1.398       .  A
C3132      H3137   1.084       .  S
C3133      C3134   1.414       .  A
C3134      N3135   1.432       .  S
N3135      H3139   1.045       .  S
N3135      H3140   1.041       .  S
N3138      H3141   1.045       .  S
N3138      H3142   1.046       .  S
C3143      C3144   1.405       .  A
C3143      C3148   1.406       .  A
C3143      H3150   1.084       .  S
C3144      C3145   1.412       .  A
C3145      C3146   1.404       .  A
C3145      N3152   1.432       .  S
C3146      C3147   1.406       .  A
C3146      H3151   1.084       .  S
C3147      C3148   1.407       .  A
C3148      N3149   1.430       .  S
N3149      H3153   1.045       .  S
N3149      H3154   1.046       .  S
N3152      H3155   1.046       .  S
N3152      H3156   1.045       .  S
C3157      C3158   1.403       .  A
C3157      C3162   1.411       .  A
C3157      H3164   1.084       .  S
C3158      C3159   1.413       .  A
C3159      C3160   1.396       .  A
C3159      N3166   1.439       .  S
C3160      C3161   1.405       .  A
C3160      H3165   1.084       .  S
C3161      C3162   1.417       .  A
C3162      N3163   1.438       .  S
N3163      H3167   1.046       .  S
N3163      H3168   1.045       .  S
N3166      H3169   1.044       .  S
N3166      H3170   1.046       .  S
C3171      C3172   1.409       .  A
C3171      C3176   1.411       .  A
C3171      H3178   1.079       .  S
C3172      C3173   1.425       .  A
C3173      C3174   1.404       .  A
C3173      N3180   1.433       .  S
C3174      C3175   1.398       .  A
C3174      H3179   1.084       .  S
C3175      C3176   1.413       .  A
C3176      N3177   1.433       .  S
N3177      H3181   1.045       .  S
N3177      H3182   1.046       .  S
N3180      H3183   1.046       .  S
N3180      H3184   1.046       .  S
C3185      C3186   1.402       .  A
C3185      C3190   1.411       .  A
C3185      H3192   1.084       .  S
C3186      C3187   1.411       .  A
C3187      C3188   1.402       .  A
C3187      N3194   1.433       .  S
C3188      C3189   1.411       .  A
C3188      H3193   1.080       .  S
C3189      C3190   1.424       .  A
C3190      N3191   1.437       .  S
N3191      H3195   1.046       .  S
N3191      H3196   1.041       .  S
N3194      H3197   1.045       .  S
N3194      H3198   1.046       .  S
C3199      C3200   1.399       .  A
C3199      C3204   1.397       .  A
C3199      H3206   1.083       .  S
C3200      C3201   1.412       .  A
C3201      C3202   1.411       .  A
C3201      N3208   1.437       .  S
C3202      C3203   1.414       .  A
C3202      H3207   1.083       .  S
C3203      C3204   1.417       .  A
C3204      N3205   1.437   1_556  S
N3205      H3209   1.046       .  S
N3205      H3210   1.046       .  S
N3208      H3211   1.044       .  S
N3208      H3212   1.046       .  S
C3213      C3214   1.410       .  A
C3213      C3218   1.420       .  A
C3213      H3220   1.083       .  S
C3214      C3215   1.420       .  A
C3215      C3216   1.394       .  A
C3215      N3222   1.432       .  S
C3216      C3217   1.400       .  A
C3216      H3221   1.084   1_556  S
C3217      C3218   1.421       .  A
C3218      N3219   1.437       .  S
N3219      H3223   1.046       .  S
N3219      H3224   1.045       .  S
N3222      H3225   1.046       .  S
N3222      H3226   1.046       .  S
C3227      C3228   1.403       .  A
C3227      C3232   1.414       .  A
C3227      H3234   1.084       .  S
C3228      C3229   1.409       .  A
C3229      C3230   1.405       .  A
C3229      N3236   1.432       .  S
C3230      C3231   1.413       .  A
C3230      H3235   1.077       .  S
C3231      C3232   1.419       .  A
C3232      N3233   1.433       .  S
N3233      H3237   1.046       .  S
N3233      H3238   1.045       .  S
N3236      H3239   1.046       .  S
N3236      H3240   1.046       .  S
