geometry optimzed in LAMMPS
_audit_creation_date              2020-11-30 
_audit_creation_method            'lammps2cif' 
_symmetry_space_group_name_H-M    'P1' 
_symmetry_Int_Tables_number       1 
_symmetry_cell_setting            triclinic 
loop_ 
_symmetry_equiv_pos_as_xyz 
  x,y,z 
_cell_length_a                    41.31403871 
_cell_length_b                    41.323431235447096 
_cell_length_c                    25.32613572941095 
_cell_angle_alpha                 89.99739762939517 
_cell_angle_beta                  89.99667945973742 
_cell_angle_gamma                 118.32204119221562 
loop_ 
_atom_site_label 
_atom_site_type_symbol 
_atom_site_fract_x 
_atom_site_fract_y 
_atom_site_fract_z 
_atom_site_charge 
O1          O  0.83095754  0.23587941  0.31348813    -0.70700
O2          O  0.76387768  0.16836640  0.20137964    -0.71600
O3          O  0.76427436  0.16851461  0.31397836    -0.60300
O4          O  0.83054638  0.23575391  0.20088387    -0.68700
O5          O  0.86247932  0.20507978  0.20029249    -0.68200
O6          O  0.79587339  0.13750120  0.31400709    -0.59500
O7          O  0.79548974  0.13736446  0.20079344    -0.72000
O8          O  0.86286953  0.20517775  0.31348664    -0.70800
Cu9        Cu  0.79633287  0.20317679  0.25744189     1.04600
Cu10       Cu  0.83032137  0.17017200  0.25713406     1.04300
C11         C  0.85717941  0.23095506  0.33139924     0.95500
C12         C  0.76931125  0.14253306  0.18317707     0.94700
C13         C  0.76980895  0.14270700  0.33203429     0.86800
C14         C  0.85667064  0.23083194  0.18255315     0.93100
C15         C  0.55399014  0.85523541  0.99075227     0.82500
N16         N  0.56247984  0.84509802  0.44406856    -0.75800
C17         C  0.58020479  0.82469576  0.44359865     0.85000
N18         N  0.58886460  0.81392426  0.98962052    -0.75700
C19         C  0.58052096  0.82428487  0.03621510     0.85100
N20         N  0.56287249  0.84474260  0.03684863    -0.77500
C21         C  0.43600145  0.85670209  0.99276100     0.82500
N22         N  0.41737045  0.84469621  0.03913944    -0.75800
C23         C  0.38054012  0.82152203  0.03889863     0.85000
N24         N  0.36252552  0.80985691  0.99228270    -0.75700
C25         C  0.38089010  0.82150552  0.44591309     0.85100
N26         N  0.41773769  0.84458678  0.44615395    -0.77500
C27         C  0.53548833  0.05577191  0.00938848     0.82500
N28         N  0.52654579  0.06627216  0.46335482    -0.75800
C29         C  0.50887418  0.08670886  0.46409413     0.85000
N30         N  0.50056232  0.09703745  0.01073618    -0.75700
C31         C  0.50927749  0.08625561  0.05670629     0.85100
N32         N  0.52702801  0.06587598  0.05613175    -0.77500
C33         C  0.65347819  0.05419025  0.00721565     0.82500
N34         N  0.67178266  0.06616906  0.05382709    -0.75800
C35         C  0.70869246  0.08895237  0.05405566     0.85000
N36         N  0.72709001  0.10041671  0.00767839    -0.75700
C37         C  0.70903389  0.08889888  0.46106472     0.85100
N38         N  0.67214173  0.06602129  0.46083133    -0.77500
C39         C  0.53500667  0.87734052  0.99157388    -0.08600
C40         C  0.49658839  0.85907949  0.99023104    -0.02400
C41         C  0.47662677  0.87844095  0.99309109    -0.08500
C42         C  0.49577468  0.91729791  0.99705212     0.12400
C43         C  0.53494273  0.93604670  0.99800839    -0.00300
C44         C  0.55460904  0.91594944  0.99523930     0.12200
C45         C  0.59334970  0.93490204  0.99623500    -0.10400
C46         C  0.61254004  0.97307325  0.99996569    -0.10400
C47         C  0.59368354  0.99368469  0.00289474     0.12200
C48         C  0.55451713  0.97494507  0.00193433    -0.00300
C49         C  0.47691583  0.93790838  0.99997183    -0.10500
C50         C  0.49611323  0.97608826  0.00371581    -0.10500
C51         C  0.53485695  0.99504742  0.00472686     0.12400
C52         C  0.55447213  0.03366047  0.00845063    -0.08500
C53         C  0.59290098  0.05191405  0.00979306    -0.02400
C54         C  0.61284545  0.03253218  0.00688622    -0.08600
H55         H  0.60929028  0.92032007  0.99404488     0.09700
H56         H  0.64224726  0.98629717  0.00061773     0.09700
H57         H  0.44721705  0.92467682  0.99931854     0.09800
H58         H  0.48016982  0.99067465  0.00591324     0.09800
H59         H  0.48201562  0.82930871  0.98762644     0.06300
H60         H  0.60748418  0.08167167  0.01244098     0.06300
O61         O  0.29638081  0.38645499  0.18783895    -0.70700
O62         O  0.22594413  0.38112916  0.30032295    -0.71600
O63         O  0.22569510  0.38113877  0.18822287    -0.60300
O64         O  0.29651345  0.38640754  0.29989220    -0.68700
O65         O  0.32190156  0.44743453  0.29981777    -0.68200
O66         O  0.25123191  0.44217385  0.18845945    -0.59500
O67         O  0.25150339  0.44216723  0.30011378    -0.72000
O68         O  0.32175262  0.44747257  0.18795915    -0.70800
Cu69       Cu  0.26023576  0.38160159  0.24405040     1.04600
Cu70       Cu  0.28748910  0.44697136  0.24407322     1.04300
C71         C  0.31979100  0.41776921  0.16996977     0.95500
C72         C  0.22810494  0.41094280  0.31820860     0.94700
C73         C  0.22771404  0.41093991  0.17054408     0.86800
C74         C  0.31990043  0.41771155  0.31777855     0.93100
O75         O  0.32530602  0.74168994  0.18599074    -0.70700
O76         O  0.25896908  0.67455574  0.29913986    -0.71600
O77         O  0.25853607  0.67440042  0.18654556    -0.60300
O78         O  0.32572244  0.74187200  0.29861519    -0.68700
O79         O  0.29419524  0.77295878  0.29917303    -0.68200
O80         O  0.22671230  0.70519156  0.18653313    -0.59500
O81         O  0.22712375  0.70531832  0.29973027    -0.72000
O82         O  0.29379201  0.77278786  0.18596056    -0.71400
Cu83       Cu  0.29321068  0.70707686  0.24256410     1.04600
Cu84       Cu  0.25931718  0.74017674  0.24285979     1.04300
C85         C  0.31982104  0.76752738  0.16792495     0.95500
C86         C  0.23287987  0.67953346  0.31747410     0.94700
C87         C  0.23234457  0.67937473  0.16863544     0.86800
C88         C  0.32034340  0.76774509  0.31679885     0.93100
C89         C  0.14468086  0.44441596  0.49403458     0.82500
N90         N  0.15466700  0.43549669  0.04056283    -0.75800
C91         C  0.17496633  0.41766235  0.04074401     0.85000
N92         N  0.18568016  0.40918526  0.49455236    -0.75700
C93         C  0.17546215  0.41789030  0.44810244     0.85100
N94         N  0.15522013  0.43579267  0.44776014    -0.77500
C95         C  0.14453941  0.56311099  0.49309768     0.82500
N96         N  0.15672887  0.58151035  0.44657808    -0.75800
C97         C  0.17961266  0.61840693  0.44657943     0.85000
N98         N  0.19089946  0.63666897  0.49307743    -0.75700
C99         C  0.17914628  0.61849732  0.03956768     0.85100
N100        N  0.15619892  0.58164558  0.03958168    -0.77500
C101        C  0.94538331  0.34713445  0.50692139     0.82500
N102        N  0.93311262  0.32876073  0.05343530    -0.75800
C103        C  0.91002040  0.29190917  0.05344404     0.85000
N104        N  0.89859806  0.27367081  0.50695553    -0.75700
C105        C  0.91047035  0.29180814  0.46046619     0.85100
N106        N  0.93362525  0.32861632  0.46044583    -0.77500
C107        C  0.94535273  0.46585021  0.50603308     0.82500
N108        N  0.93486978  0.47451568  0.05229636    -0.75800
C109        C  0.91471768  0.49251122  0.05193756     0.85000
N110        N  0.90456425  0.50129934  0.50547824    -0.75700
C111        C  0.91523686  0.49274330  0.45929685     0.85100
N112        N  0.93543876  0.47481019  0.45949674    -0.77500
C113        C  0.12251244  0.52252828  0.49337945    -0.08600
C114        C  0.14155132  0.50220207  0.49185200    -0.02400
C115        C  0.12290346  0.46379258  0.49388194    -0.08500
C116        C  0.08422633  0.44460972  0.49699117     0.12400
C117        C  0.06447450  0.46467520  0.49835824    -0.00300
C118        C  0.08361968  0.50380295  0.49662799     0.12200
C119        C  0.06336255  0.52307262  0.49815328    -0.10400
C120        C  0.02514189  0.50432076  0.50127603    -0.10400
C121        C  0.00577452  0.46562131  0.50305222     0.12200
C122        C  0.02551986  0.44555026  0.50166806    -0.00300
C123        C  0.06485396  0.40590835  0.49875230    -0.10500
C124        C  0.02662385  0.38715018  0.50185283    -0.10500
C125        C  0.00636694  0.40642206  0.50338655     0.12400
C126        C  0.96746756  0.38770977  0.50664032    -0.08500
C127        C  0.94844743  0.40805117  0.50820576    -0.02400
C128        C  0.96710379  0.44645261  0.50619179    -0.08600
H129        H  0.07690726  0.55277327  0.49686079     0.09700
H130        H  0.01084712  0.52057315  0.50237506     0.09700
H131        H  0.07915677  0.38965683  0.49765884     0.09800
H132        H  0.01307256  0.35745529  0.50313240     0.09800
H133        H  0.17133774  0.51647378  0.48979304     0.06300
H134        H  0.91864970  0.39378873  0.51027726     0.06300
O135        O  0.53485822  0.16275374  0.31627467    -0.70700
O136        O  0.54272010  0.23349894  0.20340602    -0.71600
O137        O  0.54230312  0.23401626  0.31522877    -0.60300
O138        O  0.53520801  0.16218015  0.20468255    -0.68700
O139        O  0.47428328  0.13819298  0.20402319    -0.68200
O140        O  0.48139349  0.21017158  0.31477789    -0.59500
O141        O  0.48181871  0.20967085  0.20280967    -0.72000
O142        O  0.47393594  0.13876625  0.31604211    -0.70800
Cu143      Cu  0.54093284  0.19894925  0.25990734     1.04600
Cu144      Cu  0.47568316  0.17336184  0.25938566     1.04300
C145        C  0.50330608  0.14004735  0.33422949     0.95500
C146        C  0.51345711  0.23235656  0.18505001     0.94700
C147        C  0.51289100  0.23296156  0.33279350     0.86800
C148        C  0.50375509  0.13928904  0.18665317     0.93100
O149        O  0.86474533  0.52949640  0.31183141    -0.70700
O150        O  0.79401800  0.52450604  0.20023308    -0.71600
O151        O  0.79416245  0.52442009  0.31228573    -0.60300
O152        O  0.86447819  0.52953166  0.19974215    -0.68700
O153        O  0.83874019  0.46848118  0.19992239    -0.68200
O154        O  0.76861240  0.46339016  0.31212980    -0.59500
O155        O  0.76844927  0.46346575  0.20026646    -0.72000
O156        O  0.83903331  0.46844853  0.31156932    -0.70800
Cu157      Cu  0.83025469  0.52916960  0.25604371     1.04600
Cu158      Cu  0.80281046  0.46378590  0.25598513     1.04300
C159        C  0.86262558  0.49964907  0.32948715     0.95500
C160        C  0.77055738  0.49323984  0.18233128     0.94700
C161        C  0.77068056  0.49313232  0.33014519     0.86800
C162        C  0.86220891  0.49967773  0.18183569     0.93100
O163        O  0.61556034  0.77237267  0.18422447    -0.70700
O164        O  0.60804403  0.70152506  0.29729816    -0.71600
O165        O  0.60837815  0.70107964  0.18533556    -0.60300
O166        O  0.61530419  0.77288784  0.29622850    -0.68700
O167        O  0.55435961  0.74870667  0.29568489    -0.68200
O168        O  0.54744787  0.67702888  0.18497782    -0.59500
O169        O  0.54712154  0.67749240  0.29681661    -0.72000
O170        O  0.55461881  0.74819255  0.18408511    -0.70800
Cu171      Cu  0.61399481  0.73781109  0.24079411     1.04600
Cu172      Cu  0.54872324  0.71201004  0.24038563     1.04300
C173        C  0.58612988  0.77098934  0.16610654     0.95500
C174        C  0.57645350  0.67874893  0.31509854     0.94700
C175        C  0.57690256  0.67821126  0.16734686     0.86800
C176        C  0.58579735  0.77167006  0.31367722     0.93100
C177        C  0.43580911  0.44679455  0.49367758     0.82500
N178        N  0.41747438  0.44028651  0.04020030    -0.75800
C179        C  0.38049452  0.42659856  0.04027770     0.85000
N180        N  0.36197131  0.42004176  0.49401489    -0.75700
C181        C  0.38035668  0.42665193  0.44761929     0.85100
N182        N  0.41732204  0.44042263  0.44737410    -0.77500
C183        C  0.54917698  0.56282514  0.99095873     0.82500
N184        N  0.55546592  0.58113448  0.03739983    -0.75800
C185        C  0.56789690  0.61788428  0.03744164     0.85000
N186        N  0.57352254  0.63626327  0.99120440    -0.75700
C187        C  0.56714104  0.61791017  0.44482124     0.85100
N188        N  0.55458436  0.58110128  0.44459418    -0.77500
C189        C  0.54133453  0.34847374  0.00924025     0.82500
N190        N  0.53587597  0.33017011  0.05558994    -0.75800
C191        C  0.52313074  0.29333115  0.05533044     0.85000
N192        N  0.51659460  0.27497180  0.00892873    -0.75700
C193        C  0.52228864  0.29339153  0.46270824     0.85100
N194        N  0.53490977  0.33017080  0.46278092    -0.77500
C195        C  0.65474867  0.46447599  0.00644309     0.82500
N196        N  0.67307684  0.47092605  0.45993027    -0.75800
C197        C  0.71004837  0.48453700  0.45984118     0.85000
N198        N  0.72858254  0.49109071  0.50609662    -0.75700
C199        C  0.71019231  0.48452427  0.05248947     0.85100
N200        N  0.67323891  0.47084034  0.05274098    -0.77500
C201        C  0.53244316  0.52280309  0.99125678    -0.08600
C202        C  0.49420658  0.50319172  0.99014912    -0.02400
C203        C  0.47593219  0.46498859  0.99346362    -0.08500
C204        C  0.49604643  0.44549442  0.99738389     0.12400
C205        C  0.53498559  0.46523009  0.99811375    -0.00300
C206        C  0.55334677  0.50411991  0.99510047     0.12200
C207        C  0.59197992  0.52323618  0.99600971    -0.10400
C208        C  0.61224307  0.50437719  0.99974603    -0.10400
C209        C  0.59451019  0.46580967  0.00282215     0.12200
C210        C  0.55557081  0.44607770  0.00211260    -0.00300
C211        C  0.47831196  0.40692850  0.00047681    -0.10500
C212        C  0.49857345  0.38807210  0.00423450    -0.10500
C213        C  0.53720693  0.40718876  0.00513212     0.12400
C214        C  0.55810169  0.38849799  0.00896174    -0.08500
C215        C  0.59633820  0.40809978  0.01002551    -0.02400
C216        C  0.61461950  0.44630546  0.00669763    -0.08600
H217        H  0.60685420  0.55295413  0.99368005     0.09700
H218        H  0.64194263  0.52027823  0.00028413     0.09700
H219        H  0.44861922  0.39102720  0.99993253     0.09800
H220        H  0.48369672  0.35836096  0.00657611     0.09800
H221        H  0.47840850  0.51793001  0.98761690     0.06300
H222        H  0.61212804  0.39335387  0.01253190     0.06300
C223        C  0.57127202  0.63715997  0.39639464    -0.11000
C224        C  0.57390912  0.65509674  0.35775390    -0.12500
C225        C  0.57225411  0.63689890  0.08609953    -0.11000
C226        C  0.57467823  0.65455625  0.12493813    -0.12500
C227        C  0.72950055  0.48911720  0.10095630    -0.11000
C228        C  0.74720401  0.49152504  0.13975417    -0.12500
C229        C  0.74714797  0.49135091  0.37260891    -0.11000
C230        C  0.72925562  0.48896924  0.41123479    -0.12500
C231        C  0.51519420  0.25666331  0.37517720    -0.11000
C232        C  0.51774680  0.27435488  0.41402725    -0.12500
C233        C  0.51889457  0.27402895  0.10373638    -0.11000
C234        C  0.51613804  0.25604502  0.14237119    -0.12500
C235        C  0.88593047  0.50083942  0.37182640    -0.11000
C236        C  0.90158393  0.49888067  0.41065427    -0.12500
C237        C  0.90079354  0.49873355  0.10026989    -0.11000
C238        C  0.88523067  0.50083042  0.13911381    -0.12500
C239        C  0.19389897  0.63801184  0.08829733    -0.11000
C240        C  0.20979691  0.65624399  0.12644769    -0.12500
C241        C  0.19461713  0.63797894  0.39790867    -0.11000
C242        C  0.21052473  0.65635610  0.35983255    -0.12500
C243        C  0.36126692  0.42207363  0.08888421    -0.11000
C244        C  0.34335622  0.41962259  0.12751520    -0.12500
C245        C  0.34329564  0.41952745  0.36035970    -0.11000
C246        C  0.36103270  0.42201017  0.39915205    -0.12500
C247        C  0.20504086  0.40971387  0.36091951    -0.11000
C248        C  0.18943628  0.41174207  0.39976189    -0.12500
C249        C  0.20437362  0.40966586  0.12819395    -0.11000
C250        C  0.18867771  0.41157591  0.08937753    -0.12500
C251        C  0.50190279  0.11569394  0.14440547    -0.11000
C252        C  0.50348115  0.09994027  0.10549182    -0.12500
C253        C  0.50123055  0.11674615  0.37707552    -0.11000
C254        C  0.50280438  0.10091617  0.41593579    -0.12500
C255        C  0.34340802  0.79041213  0.35897611    -0.11000
C256        C  0.36157362  0.80647470  0.39710811    -0.12500
C257        C  0.34270796  0.79017353  0.12555060    -0.11000
C258        C  0.36092454  0.80633160  0.08748171    -0.12500
C259        C  0.58652934  0.81009004  0.08442448    -0.11000
C260        C  0.58810373  0.79427151  0.12329506    -0.12500
C261        C  0.58760469  0.79522186  0.35595575    -0.11000
C262        C  0.58601779  0.81097417  0.39486277    -0.12500
C263        C  0.87901115  0.25402809  0.14020106    -0.11000
C264        C  0.89494571  0.27238358  0.10212304    -0.12500
C265        C  0.89563527  0.27232187  0.41173892    -0.11000
C266        C  0.87970690  0.25409891  0.37359497    -0.12500
C267        C  0.72869857  0.10395183  0.41247984    -0.11000
C268        C  0.74693760  0.12004860  0.37440109    -0.12500
C269        C  0.72807150  0.10386872  0.10284949    -0.11000
C270        C  0.74626686  0.11987067  0.14098726    -0.12500
O271        O  0.83094526  0.23586430  0.81350219    -0.70700
O272        O  0.76386752  0.16834906  0.70139313    -0.71600
O273        O  0.76427089  0.16849036  0.81399119    -0.60300
O274        O  0.83052561  0.23574555  0.70089780    -0.68700
O275        O  0.86246996  0.20508304  0.70029079    -0.68200
O276        O  0.79588090  0.13748799  0.81400629    -0.59500
O277        O  0.79549121  0.13735883  0.70079238    -0.72000
O278        O  0.86286844  0.20517400  0.81348438    -0.70800
Cu279      Cu  0.79632071  0.20316002  0.75745633     1.04600
Cu280      Cu  0.83032141  0.17016756  0.75713233     1.04300
C281        C  0.85717325  0.23094637  0.83140413     0.95500
C282        C  0.76930803  0.14252201  0.68318226     0.94700
C283        C  0.76981290  0.14268572  0.83203975     0.86800
C284        C  0.85665253  0.23083140  0.68255862     0.93100
C285        C  0.55399047  0.85523493  0.49075930     0.82500
N286        N  0.56248757  0.84510417  0.94406303    -0.75800
C287        C  0.58021218  0.82470154  0.94359648     0.85000
N288        N  0.58886561  0.81392440  0.48962112    -0.75700
C289        C  0.58053014  0.82429071  0.53621727     0.85100
N290        N  0.56288138  0.84474822  0.53685407    -0.77500
C291        C  0.43600212  0.85670479  0.49276982     0.82500
N292        N  0.41737039  0.84469411  0.53914686    -0.75800
C293        C  0.38053884  0.82152549  0.53890333     0.85000
N294        N  0.36252371  0.80987079  0.49228613    -0.75700
C295        C  0.38089140  0.82148671  0.94590829     0.85100
N296        N  0.41773774  0.84457337  0.94614680    -0.77500
C297        C  0.53549145  0.05577225  0.50939666     0.82500
N298        N  0.52654071  0.06627132  0.96334749    -0.75800
C299        C  0.50886737  0.08670657  0.96408880     0.85000
N300        N  0.50056912  0.09704103  0.51074035    -0.75700
C301        C  0.50928257  0.08625875  0.55671136     0.85100
N302        N  0.52703131  0.06587749  0.55613900    -0.77500
C303        C  0.65347974  0.05419146  0.50721430     0.82500
N304        N  0.67178625  0.06616419  0.55382517    -0.75800
C305        C  0.70869483  0.08895267  0.55405235     0.85000
N306        N  0.72708927  0.10042836  0.50767441    -0.75700
C307        C  0.70903689  0.08888102  0.96106827     0.85100
N308        N  0.67214369  0.06600840  0.96083331    -0.77500
C309        C  0.53500734  0.87734046  0.49158404    -0.08600
C310        C  0.49658840  0.85907906  0.49024066    -0.02400
C311        C  0.47662779  0.87844202  0.49310139    -0.08500
C312        C  0.49577588  0.91729849  0.49706383     0.12400
C313        C  0.53494429  0.93604687  0.49801968    -0.00300
C314        C  0.55461018  0.91594920  0.49524982     0.12200
C315        C  0.59335083  0.93490159  0.49624384    -0.10400
C316        C  0.61254216  0.97307324  0.49997261    -0.10400
C317        C  0.59368531  0.99368462  0.50290204     0.12200
C318        C  0.55451903  0.97494518  0.50194492    -0.00300
C319        C  0.47691895  0.93790984  0.49998553    -0.10500
C320        C  0.49611506  0.97608900  0.50373004    -0.10500
C321        C  0.53485927  0.99504761  0.50473873     0.12400
C322        C  0.55447482  0.03366096  0.50846023    -0.08500
C323        C  0.59290260  0.05191295  0.50979706    -0.02400
C324        C  0.61284754  0.03253272  0.50688922    -0.08600
H325        H  0.60929155  0.92031941  0.49405282     0.09700
H326        H  0.64224662  0.98629596  0.50062230     0.09700
H327        H  0.44721310  0.92467564  0.49933318     0.09800
H328        H  0.48017357  0.99067509  0.50592877     0.09800
H329        H  0.48201712  0.82931250  0.48763506     0.06300
H330        H  0.60748976  0.08167865  0.51244268     0.06300
O331        O  0.29639184  0.38647168  0.68782455    -0.70700
O332        O  0.22595247  0.38113378  0.80030700    -0.71600
O333        O  0.22570418  0.38115238  0.68820732    -0.60300
O334        O  0.29652271  0.38641777  0.79987771    -0.68700
O335        O  0.32190777  0.44744451  0.79981031    -0.68200
O336        O  0.25123821  0.44218714  0.68845286    -0.59500
O337        O  0.25150849  0.44217177  0.80010719    -0.72000
O338        O  0.32176130  0.44748915  0.68795101    -0.70800
Cu339      Cu  0.26024540  0.38161294  0.74403445     1.04600
Cu340      Cu  0.28749566  0.44698251  0.74406586     1.04300
C341        C  0.31980172  0.41778713  0.66995946     0.95500
C342        C  0.22811202  0.41094531  0.81819858     0.94700
C343        C  0.22772067  0.41095404  0.67053451     0.86800
C344        C  0.31990695  0.41772130  0.81776950     0.93100
O345        O  0.32529247  0.74167616  0.68597560    -0.70700
O346        O  0.25895567  0.67454276  0.79912413    -0.71600
O347        O  0.25851388  0.67439427  0.68653019    -0.60300
O348        O  0.32571619  0.74185060  0.79860035    -0.68700
O349        O  0.29419842  0.77294680  0.79917304    -0.68200
O350        O  0.22669973  0.70519514  0.68653358    -0.59500
O351        O  0.22712008  0.70531518  0.79973096    -0.72000
O352        O  0.29378834  0.77278402  0.68596107    -0.71400
Cu353      Cu  0.29319640  0.70706283  0.74254785     1.04600
Cu354      Cu  0.25931334  0.74017322  0.74286043     1.04300
C355        C  0.31981309  0.76751919  0.66791872     0.95500
C356        C  0.23287238  0.67952631  0.81746787     0.94700
C357        C  0.23232440  0.67937525  0.66862867     0.86800
C358        C  0.32034348  0.76772568  0.81679236     0.93100
C359        C  0.14469912  0.44441531  0.99403331     0.82500
N360        N  0.15465395  0.43550287  0.54056447    -0.75800
C361        C  0.17495833  0.41767332  0.54074582     0.85000
N362        N  0.18568828  0.40917415  0.99455066    -0.75700
C363        C  0.17547436  0.41788401  0.94810101     0.85100
N364        N  0.15523729  0.43579110  0.94775899    -0.77500
C365        C  0.14455583  0.56310823  0.99310370     0.82500
N366        N  0.15673839  0.58150841  0.94658367    -0.75800
C367        C  0.17962309  0.61840474  0.94658429     0.85000
N368        N  0.19091774  0.63666586  0.99308192    -0.75700
C369        C  0.17912111  0.61850157  0.53956264     0.85100
N370        N  0.15617449  0.58164977  0.53957603    -0.77500
C371        C  0.94540408  0.34712786  0.00691314     0.82500
N372        N  0.93308538  0.32876721  0.55344223    -0.75800
C373        C  0.90999441  0.29191556  0.55344895     0.85000
N374        N  0.89861617  0.27366481  0.00695167    -0.75700
C375        C  0.91048175  0.29180216  0.96046120     0.85100
N376        N  0.93363773  0.32861025  0.96043871    -0.77500
C377        C  0.94536577  0.46583903  0.00602813     0.82500
N378        N  0.93487382  0.47454684  0.55229965    -0.75800
C379        C  0.91473249  0.49255376  0.55193728     0.85000
N380        N  0.90455528  0.50126494  0.00548015    -0.75700
C381        C  0.91524374  0.49272823  0.95929707     0.85100
N382        N  0.93545664  0.47480662  0.95949329    -0.77500
C383        C  0.12252940  0.52252506  0.99338389    -0.08600
C384        C  0.14156878  0.50220061  0.99185609    -0.02400
C385        C  0.12292234  0.46379060  0.99388116    -0.08500
C386        C  0.08424350  0.44461062  0.99698706     0.12400
C387        C  0.06449267  0.46467124  0.99835463    -0.00300
C388        C  0.08363720  0.50380238  0.99662808     0.12200
C389        C  0.06337617  0.52305879  0.99815390    -0.10400
C390        C  0.02515189  0.50432318  0.00127342    -0.10400
C391        C  0.00579222  0.46561238  0.00304571     0.12200
C392        C  0.02553744  0.44554592  0.00166173    -0.00300
C393        C  0.06487984  0.40589538  0.99874420    -0.10500
C394        C  0.02664742  0.38715934  0.00184323    -0.10500
C395        C  0.00638507  0.40641313  0.00337850     0.12400
C396        C  0.96748714  0.38770422  0.00663124    -0.08500
C397        C  0.94846541  0.40804306  0.00819680    -0.02400
C398        C  0.96711988  0.44644553  0.00618360    -0.08600
H399        H  0.07693784  0.55280956  0.99686282     0.09700
H400        H  0.01089004  0.52053061  0.00237055     0.09700
H401        H  0.07914374  0.38969756  0.99765265     0.09800
H402        H  0.01306996  0.35739196  0.00312333     0.09800
H403        H  0.17135817  0.51647447  0.98979946     0.06300
H404        H  0.91866821  0.39377935  0.01026808     0.06300
O405        O  0.53484856  0.16275587  0.81627766    -0.70700
O406        O  0.54271534  0.23350399  0.70341074    -0.71600
O407        O  0.54228755  0.23401596  0.81523304    -0.60300
O408        O  0.53520741  0.16218661  0.70468609    -0.68700
O409        O  0.47428235  0.13819611  0.70401699    -0.68200
O410        O  0.48137751  0.21016756  0.81477063    -0.59500
O411        O  0.48181372  0.20967272  0.70280245    -0.72000
O412        O  0.47392597  0.13876449  0.81603556    -0.70800
Cu413      Cu  0.54092519  0.19895279  0.75991155     1.04600
Cu414      Cu  0.47567517  0.17336156  0.75937837     1.04300
C415        C  0.50329577  0.14004694  0.83422744     0.95500
C416        C  0.51345340  0.23236082  0.68504901     0.94700
C417        C  0.51287271  0.23295801  0.83279224     0.86800
C418        C  0.50375629  0.13929437  0.68665254     0.93100
O419        O  0.86474956  0.52949897  0.81185511    -0.70700
O420        O  0.79402612  0.52452082  0.70025645    -0.71600
O421        O  0.79415723  0.52440202  0.81230914    -0.60300
O422        O  0.86449504  0.52956709  0.69976538    -0.68700
O423        O  0.83877031  0.46851742  0.69991168    -0.68200
O424        O  0.76862083  0.46337310  0.81211835    -0.59500
O425        O  0.76847133  0.46348154  0.70025493    -0.72000
O426        O  0.83905121  0.46845215  0.81155794    -0.70800
Cu427      Cu  0.83026018  0.52917827  0.75606880     1.04600
Cu428      Cu  0.80283069  0.46379565  0.75597275     1.04300
C429        C  0.86263657  0.49965014  0.82949246     0.95500
C430        C  0.77057340  0.49325713  0.68233673     0.94700
C431        C  0.77067815  0.49310684  0.83015003     0.86800
C432        C  0.86223507  0.49972115  0.68184137     0.93100
O433        O  0.61557264  0.77237719  0.68422564    -0.70700
O434        O  0.60804493  0.70152450  0.79729902    -0.71600
O435        O  0.60837925  0.70107934  0.68533661    -0.60300
O436        O  0.61531593  0.77289206  0.79622977    -0.68700
O437        O  0.55437205  0.74871828  0.79568507    -0.68200
O438        O  0.54744971  0.67703610  0.68497905    -0.59500
O439        O  0.54712321  0.67749940  0.79681754    -0.72000
O440        O  0.55463183  0.74820430  0.68408588    -0.70800
Cu441      Cu  0.61400132  0.73781280  0.74079527     1.04600
Cu442      Cu  0.54873057  0.71201977  0.74038642     1.04300
C443        C  0.58614411  0.77099827  0.66610767     0.95500
C444        C  0.57645320  0.67875106  0.81509891     0.94700
C445        C  0.57690236  0.67821381  0.66734837     0.86800
C446        C  0.58581085  0.77167883  0.81367749     0.93100
C447        C  0.43580312  0.44680023  0.99368646     0.82500
N448        N  0.41748297  0.44028904  0.54019250    -0.75800
C449        C  0.38050367  0.42660382  0.54027252     0.85000
N450        N  0.36196430  0.42004133  0.99401841    -0.75700
C451        C  0.38035241  0.42665934  0.94762395     0.85100
N452        N  0.41731807  0.44043266  0.94738188    -0.77500
C453        C  0.54917479  0.56282569  0.49095970     0.82500
N454        N  0.55546062  0.58113370  0.53740165    -0.75800
C455        C  0.56789125  0.61788351  0.53744467     0.85000
N456        N  0.57351984  0.63626367  0.49120795    -0.75700
C457        C  0.56714056  0.61790860  0.94481826     0.85100
N458        N  0.55458339  0.58109950  0.94459250    -0.77500
C459        C  0.54135814  0.34848546  0.50923717     0.82500
N460        N  0.53589225  0.33018089  0.55558755    -0.75800
C461        C  0.52314559  0.29334160  0.55532864     0.85000
N462        N  0.51661454  0.27498278  0.50892705    -0.75700
C463        C  0.52226166  0.29337990  0.96271060     0.85100
N464        N  0.53488124  0.33015876  0.96278393    -0.77500
C465        C  0.65476506  0.46449807  0.50645049     0.82500
N466        N  0.67305949  0.47089198  0.95992340    -0.75800
C467        C  0.71002996  0.48449401  0.95983585     0.85000
N468        N  0.72856357  0.49105055  0.00609191    -0.75700
C469        C  0.71021048  0.48455318  0.55249517     0.85100
N470        N  0.67325580  0.47086003  0.55274773    -0.77500
C471        C  0.53244492  0.52280397  0.49125471    -0.08600
C472        C  0.49420832  0.50318939  0.49014240    -0.02400
C473        C  0.47593800  0.46498561  0.49345239    -0.08500
C474        C  0.49605590  0.44549526  0.49737347     0.12400
C475        C  0.53499441  0.46523453  0.49810801    -0.00300
C476        C  0.55335174  0.50412436  0.49509823     0.12200
C477        C  0.59198493  0.52324528  0.49601127    -0.10400
C478        C  0.61225169  0.50438957  0.49974969    -0.10400
C479        C  0.59452229  0.46582189  0.50282416     0.12200
C480        C  0.55558332  0.44608596  0.50210941    -0.00300
C481        C  0.47832376  0.40692838  0.50046410    -0.10500
C482        C  0.49859064  0.38807745  0.50422424    -0.10500
C483        C  0.53722316  0.40719662  0.50512688     0.12400
C484        C  0.55812196  0.38850987  0.50895954    -0.08500
C485        C  0.59635782  0.40811628  0.51002929    -0.02400
C486        C  0.61463570  0.44632185  0.50670373    -0.08600
H487        H  0.60685466  0.55295956  0.49368411     0.09700
H488        H  0.64194906  0.52029312  0.50029149     0.09700
H489        H  0.44863778  0.39102814  0.49991649     0.09800
H490        H  0.48371334  0.35836024  0.50656449     0.09800
H491        H  0.47840953  0.51792314  0.48761105     0.06300
H492        H  0.61215291  0.39337148  0.51253823     0.06300
C493        C  0.57126858  0.63715774  0.89639155    -0.11000
C494        C  0.57390557  0.65509600  0.85775237    -0.12500
C495        C  0.57224803  0.63689770  0.58610287    -0.11000
C496        C  0.57467427  0.65455648  0.62494075    -0.12500
C497        C  0.72951965  0.48914300  0.60096097    -0.11000
C498        C  0.74722226  0.49154736  0.63975876    -0.12500
C499        C  0.74713570  0.49130805  0.87260981    -0.11000
C500        C  0.72923778  0.48892086  0.91123152    -0.12500
C501        C  0.51516996  0.25665606  0.87517713    -0.11000
C502        C  0.51771912  0.27434452  0.91402891    -0.12500
C503        C  0.51890067  0.27403772  0.60373582    -0.11000
C504        C  0.51613780  0.25605135  0.64237066    -0.12500
C505        C  0.88594137  0.50083516  0.87182924    -0.11000
C506        C  0.90159436  0.49887149  0.91065484    -0.12500
C507        C  0.90082088  0.49879185  0.60026984    -0.11000
C508        C  0.88526159  0.50088959  0.63911702    -0.12500
C509        C  0.19387034  0.63801652  0.58829295    -0.11000
C510        C  0.20977042  0.65624810  0.62644267    -0.12500
C511        C  0.19461962  0.63797682  0.89791139    -0.11000
C512        C  0.21052114  0.65635185  0.85983087    -0.12500
C513        C  0.36127925  0.42208854  0.58887870    -0.11000
C514        C  0.34336907  0.41964239  0.62750773    -0.12500
C515        C  0.34329794  0.41953645  0.86035680    -0.11000
C516        C  0.36103070  0.42201894  0.89915431    -0.12500
C517        C  0.20504968  0.40971132  0.86091377    -0.11000
C518        C  0.18944729  0.41173598  0.89976029    -0.12500
C519        C  0.20437649  0.40968176  0.62818966    -0.11000
C520        C  0.18867535  0.41159161  0.58937845    -0.12500
C521        C  0.50190794  0.11569978  0.64440704    -0.11000
C522        C  0.50348685  0.09994498  0.60549536    -0.12500
C523        C  0.50121949  0.11674417  0.87707240    -0.11000
C524        C  0.50279510  0.10091363  0.91593131    -0.12500
C525        C  0.34341093  0.79038682  0.85897194    -0.11000
C526        C  0.36157578  0.80644907  0.89710475    -0.12500
C527        C  0.34270240  0.79016792  0.62554825    -0.11000
C528        C  0.36092153  0.80632979  0.58748334    -0.12500
C529        C  0.58654494  0.81009988  0.58442604    -0.11000
C530        C  0.58812095  0.79428205  0.62329650    -0.12500
C531        C  0.58762074  0.79523236  0.85595498    -0.11000
C532        C  0.58603173  0.81098405  0.89486137    -0.12500
C533        C  0.87898615  0.25403177  0.64020497    -0.11000
C534        C  0.89491763  0.27238894  0.60212661    -0.12500
C535        C  0.89563777  0.27231622  0.91173644    -0.11000
C536        C  0.87970346  0.25409237  0.87359621    -0.12500
C537        C  0.72870485  0.10392612  0.91248338    -0.11000
C538        C  0.74694508  0.12002205  0.87440519    -0.12500
C539        C  0.72807421  0.10386344  0.60284741    -0.11000
C540        C  0.74626699  0.11986172  0.64098874    -0.12500
loop_ 
_geom_bond_atom_site_label_1 
_geom_bond_atom_site_label_2 
_geom_bond_distance 
_geom_bond_site_symmetry_2 
_ccdc_geom_bond_type 
O1           Cu9   2.013       .  S
O1           C11   1.277       .  A
O2           Cu9   2.013       .  S
O2           C12   1.277       .  A
O3           Cu9   2.014       .  S
O3           C13   1.277       .  A
O4           Cu9   2.014       .  S
O4           C14   1.277       .  A
O5          Cu10   2.025       .  S
O5           C14   1.278       .  A
O6          Cu10   2.025       .  S
O6           C13   1.278       .  A
O7          Cu10   2.023       .  S
O7           C12   1.278       .  A
O8          Cu10   2.023       .  S
O8           C11   1.278       .  A
Cu9         Cu10   2.377       .  S
C11         C266   1.442       .  S
C12         C270   1.442       .  S
C13         C268   1.443       .  S
C14         C263   1.443       .  S
C15          N20   1.355   1_556  A
C15         N286   1.355       .  A
C15          C39   1.459       .  S
N16          C17   1.354       .  A
N16         C285   1.355       .  A
C17         C262   1.425       .  S
C17         N288   1.355       .  A
N18          C19   1.355   1_556  A
N18         C287   1.355       .  A
C19         C259   1.426       .  S
C19          N20   1.353       .  A
C21          N22   1.362   1_556  A
C21         N296   1.362       .  A
C21          C41   1.481       .  S
N22          C23   1.360       .  A
C23         C258   1.443       .  S
C23          N24   1.356   1_554  A
N24         C295   1.356       .  A
C25         C256   1.442       .  S
C25          N26   1.360       .  A
C25         N294   1.356       .  A
N26         C291   1.362       .  A
C27          N32   1.355       .  A
C27         N298   1.355   1_554  A
C27          C52   1.460       .  S
N28          C29   1.353       .  A
N28         C297   1.355       .  A
C29         C254   1.426       .  S
C29         N300   1.354       .  A
N30          C31   1.355       .  A
N30         C299   1.354   1_554  A
C31         C252   1.426       .  S
C31          N32   1.354       .  A
C33          N34   1.362       .  A
C33         N308   1.362   1_554  A
C33          C54   1.481       .  S
N34          C35   1.360       .  A
C35         C269   1.442       .  S
C35          N36   1.356       .  A
N36         C307   1.356   1_554  A
C37         C267   1.443       .  S
C37          N38   1.360       .  A
C37         N306   1.356       .  A
N38         C303   1.362       .  A
C39          C40   1.398       .  A
C39          C44   1.409       .  A
C40          C41   1.397       .  A
C40          H59   1.085       .  S
C41          C42   1.417       .  A
C42          C43   1.425       .  A
C42          C49   1.403       .  A
C43          C44   1.412       .  A
C43          C48   1.419   1_556  A
C44          C45   1.409       .  A
C45          C46   1.392       .  A
C45          H55   1.085       .  S
C46          C47   1.403   1_556  A
C46          H56   1.081   1_556  S
C47          C48   1.425       .  A
C47          C54   1.417   1_565  A
C48          C51   1.412       .  A
C49          C50   1.393   1_556  A
C49          H57   1.081       .  S
C50          C51   1.409       .  A
C50          H58   1.085       .  S
C51          C52   1.409   1_565  A
C52          C53   1.398       .  A
C53          C54   1.397       .  A
C53          H60   1.085       .  S
O61         Cu69   2.003       .  S
O61          C71   1.276       .  A
O62         Cu69   2.003       .  S
O62          C72   1.275       .  A
O63         Cu69   2.003       .  S
O63          C73   1.275       .  A
O64         Cu69   2.001       .  S
O64          C74   1.275       .  A
O65         Cu70   1.997       .  S
O65          C74   1.275       .  A
O66         Cu70   1.996       .  S
O66          C73   1.275       .  A
O67         Cu70   1.996       .  S
O67          C72   1.275       .  A
O68         Cu70   1.999       .  S
O68          C71   1.275       .  A
Cu69        Cu70   2.383       .  S
C71         C244   1.428       .  S
C72         C247   1.426       .  S
C73         C249   1.427       .  S
C74         C245   1.426       .  S
O75         Cu83   2.014       .  S
O75          C85   1.277       .  A
O76         Cu83   2.014       .  S
O76          C86   1.277       .  A
O77         Cu83   2.013       .  S
O77          C87   1.277       .  A
O78         Cu83   2.014       .  S
O78          C88   1.277       .  A
O79         Cu84   2.023       .  S
O79          C88   1.278       .  A
O80         Cu84   2.023       .  S
O80          C87   1.278       .  A
O81         Cu84   2.025       .  S
O81          C86   1.278       .  A
O82         Cu84   2.025       .  S
O82          C85   1.278       .  A
Cu83        Cu84   2.377       .  S
C85         C257   1.443       .  S
C86         C242   1.443       .  S
C87         C240   1.442       .  S
C88         C255   1.442       .  S
C89          N94   1.355       .  A
C89         N360   1.356       .  A
C89         C115   1.461       .  S
N90          C91   1.354       .  A
N90         C359   1.356   1_554  A
C91         C250   1.427       .  S
C91         N362   1.355   1_554  A
N92          C93   1.355       .  A
N92         C361   1.355       .  A
C93         C248   1.427       .  S
C93          N94   1.354       .  A
C95          N96   1.362       .  A
C95         N370   1.362       .  A
C95         C113   1.481       .  S
N96          C97   1.360       .  A
C97         C241   1.443       .  S
C97          N98   1.356       .  A
N98         C369   1.356       .  A
C99         C239   1.442       .  S
C99         N100   1.359       .  A
C99         N368   1.356   1_554  A
N100        C365   1.362   1_554  A
C101        N106   1.362       .  A
C101        N372   1.362       .  A
C101        C126   1.481       .  S
N102        C103   1.360       .  A
N102        C371   1.362       .  A
C103        C264   1.443       .  S
C103        N374   1.356       .  A
N104        C105   1.356       .  A
N104        C373   1.356       .  A
C105        C265   1.442       .  S
C105        N106   1.359       .  A
C107        N112   1.356       .  A
C107        N378   1.355       .  A
C107        C128   1.461       .  S
N108        C109   1.354       .  A
N108        C377   1.355       .  A
C109        C237   1.427       .  S
C109        N380   1.355       .  A
N110        C111   1.355       .  A
N110        C379   1.355       .  A
C111        C236   1.427       .  S
C111        N112   1.354       .  A
C113        C114   1.397       .  A
C113        C118   1.417       .  A
C114        C115   1.398       .  A
C114        H133   1.085       .  S
C115        C116   1.409       .  A
C116        C117   1.413       .  A
C116        C123   1.409       .  A
C117        C118   1.424       .  A
C117        C122   1.419       .  A
C118        C119   1.403       .  A
C119        C120   1.393       .  A
C119        H129   1.081       .  S
C120        C121   1.409       .  A
C120        H130   1.085       .  S
C121        C122   1.413       .  A
C121        C128   1.409   1_455  A
C122        C125   1.424       .  A
C123        C124   1.393       .  A
C123        H131   1.085       .  S
C124        C125   1.403       .  A
C124        H132   1.081       .  S
C125        C126   1.417   1_455  A
C126        C127   1.397       .  A
C127        C128   1.398       .  A
C127        H134   1.085       .  S
O135       Cu143   1.995       .  S
O135        C145   1.275       .  A
O136       Cu143   1.998       .  S
O136        C146   1.275       .  A
O137       Cu143   1.997       .  S
O137        C147   1.275       .  A
O138       Cu143   1.995       .  S
O138        C148   1.275       .  A
O139       Cu144   2.000       .  S
O139        C148   1.275       .  A
O140       Cu144   1.999       .  S
O140        C147   1.275       .  A
O141       Cu144   2.002       .  S
O141        C146   1.275       .  A
O142       Cu144   2.002       .  S
O142        C145   1.275       .  A
Cu143      Cu144   2.383       .  S
C145        C253   1.426       .  S
C146        C234   1.427       .  S
C147        C231   1.426       .  S
C148        C251   1.425       .  S
O149       Cu157   2.002       .  S
O149        C159   1.275       .  A
O150       Cu157   2.001       .  S
O150        C160   1.275       .  A
O151       Cu157   2.003       .  S
O151        C161   1.276       .  A
O152       Cu157   2.003       .  S
O152        C162   1.275       .  A
O153       Cu158   1.996       .  S
O153        C162   1.275       .  A
O154       Cu158   1.999       .  S
O154        C161   1.275       .  A
O155       Cu158   1.997       .  S
O155        C160   1.275       .  A
O156       Cu158   1.996       .  S
O156        C159   1.275       .  A
Cu157      Cu158   2.383       .  S
C159        C235   1.426       .  S
C160        C228   1.426       .  S
C161        C229   1.428       .  S
C162        C238   1.426       .  S
O163       Cu171   2.002       .  S
O163        C173   1.275       .  A
O164       Cu171   2.002       .  S
O164        C174   1.275       .  A
O165       Cu171   1.999       .  S
O165        C175   1.275       .  A
O166       Cu171   2.000       .  S
O166        C176   1.275       .  A
O167       Cu172   1.995       .  S
O167        C176   1.275       .  A
O168       Cu172   1.997       .  S
O168        C175   1.275       .  A
O169       Cu172   1.998       .  S
O169        C174   1.275       .  A
O170       Cu172   1.996       .  S
O170        C173   1.275       .  A
Cu171      Cu172   2.383       .  S
C173        C260   1.426       .  S
C174        C224   1.427       .  S
C175        C226   1.426       .  S
C176        C261   1.425       .  S
C177        N182   1.355       .  A
C177        N448   1.356       .  A
C177        C473   1.460       .  S
N178        C179   1.354       .  A
N178        C447   1.356   1_554  A
C179        C243   1.428       .  S
C179        N450   1.355   1_554  A
N180        C181   1.355       .  A
N180        C449   1.355       .  A
C181        C246   1.427       .  S
C181        N182   1.353       .  A
C183        N184   1.355   1_556  A
C183        N458   1.356       .  A
C183        C201   1.459       .  S
N184        C185   1.353       .  A
C185        C225   1.426       .  S
C185        N186   1.354   1_554  A
N186        C457   1.355       .  A
C187        C223   1.427       .  S
C187        N188   1.354       .  A
C187        N456   1.355       .  A
N188        C453   1.356       .  A
C189        N190   1.356       .  A
C189        N464   1.355   1_554  A
C189        C214   1.459       .  S
N190        C191   1.354       .  A
C191        C233   1.427       .  S
C191        N192   1.355       .  A
N192        C463   1.354   1_554  A
C193        C232   1.426       .  S
C193        N194   1.353       .  A
C193        N462   1.354       .  A
N194        C459   1.355       .  A
C195        N200   1.355       .  A
C195        N466   1.357   1_554  A
C195        C216   1.460       .  S
N196        C197   1.354       .  A
N196        C465   1.357       .  A
C197        C230   1.428       .  S
C197        N198   1.355       .  A
N198        C469   1.355       .  A
C199        C227   1.427       .  S
C199        N200   1.353       .  A
C199        N468   1.355       .  A
C201        C202   1.392       .  A
C201        C206   1.409       .  A
C202        C203   1.392       .  A
C202        H221   1.085       .  S
C203        C447   1.460       .  S
C203        C204   1.409       .  A
C204        C205   1.417       .  A
C204        C211   1.405   1_556  A
C205        C206   1.417       .  A
C205        C210   1.414   1_556  A
C206        C207   1.406       .  A
C207        C208   1.391       .  A
C207        H217   1.083       .  S
C208        C209   1.405   1_556  A
C208        H218   1.083   1_556  S
C209        C210   1.417       .  A
C209        C216   1.409       .  A
C210        C213   1.417       .  A
C211        C212   1.391       .  A
C211        H219   1.083   1_554  S
C212        C213   1.406       .  A
C212        H220   1.083       .  S
C213        C214   1.408       .  A
C214        C215   1.392       .  A
C215        C216   1.392       .  A
C215        H222   1.085       .  S
C223        C224   1.201       .  T
C225        C226   1.200       .  T
C227        C228   1.201       .  T
C229        C230   1.202       .  T
C231        C232   1.200       .  T
C233        C234   1.201       .  T
C235        C236   1.201       .  T
C237        C238   1.201       .  T
C239        C240   1.210       .  T
C241        C242   1.210       .  T
C243        C244   1.202       .  T
C245        C246   1.201       .  T
C247        C248   1.201       .  T
C249        C250   1.201       .  T
C251        C252   1.200       .  T
C253        C254   1.200       .  T
C255        C256   1.210       .  T
C257        C258   1.210       .  T
C259        C260   1.200       .  T
C261        C262   1.200       .  T
C263        C264   1.210       .  T
C265        C266   1.210       .  T
C267        C268   1.210       .  T
C269        C270   1.210       .  T
O271       Cu279   2.013       .  S
O271        C281   1.277       .  A
O272       Cu279   2.013       .  S
O272        C282   1.277       .  A
O273       Cu279   2.014       .  S
O273        C283   1.277       .  A
O274       Cu279   2.014       .  S
O274        C284   1.277       .  A
O275       Cu280   2.025       .  S
O275        C284   1.278       .  A
O276       Cu280   2.025       .  S
O276        C283   1.278       .  A
O277       Cu280   2.023       .  S
O277        C282   1.278       .  A
O278       Cu280   2.023       .  S
O278        C281   1.278       .  A
Cu279      Cu280   2.377       .  S
C281        C536   1.442       .  S
C282        C540   1.442       .  S
C283        C538   1.443       .  S
C284        C533   1.443       .  S
C285        N290   1.355       .  A
C285        C309   1.459       .  S
N286        C287   1.354       .  A
C287        C532   1.425       .  S
N288        C289   1.355       .  A
C289        C529   1.426       .  S
C289        N290   1.353       .  A
C291        N292   1.362       .  A
C291        C311   1.481       .  S
N292        C293   1.360       .  A
C293        C528   1.443       .  S
C293        N294   1.356       .  A
C295        C526   1.442       .  S
C295        N296   1.360       .  A
C297        N302   1.355       .  A
C297        C322   1.460       .  S
N298        C299   1.353       .  A
C299        C524   1.426       .  S
N300        C301   1.355       .  A
C301        C522   1.426       .  S
C301        N302   1.354       .  A
C303        N304   1.362       .  A
C303        C324   1.481       .  S
N304        C305   1.360       .  A
C305        C539   1.442       .  S
C305        N306   1.356       .  A
C307        C537   1.443       .  S
C307        N308   1.360       .  A
C309        C310   1.398       .  A
C309        C314   1.409       .  A
C310        C311   1.397       .  A
C310        H329   1.085       .  S
C311        C312   1.417       .  A
C312        C313   1.425       .  A
C312        C319   1.403       .  A
C313        C314   1.412       .  A
C313        C318   1.419       .  A
C314        C315   1.409       .  A
C315        C316   1.392       .  A
C315        H325   1.085       .  S
C316        C317   1.403       .  A
C316        H326   1.081       .  S
C317        C318   1.425       .  A
C317        C324   1.417   1_565  A
C318        C321   1.412       .  A
C319        C320   1.393       .  A
C319        H327   1.081       .  S
C320        C321   1.410       .  A
C320        H328   1.085       .  S
C321        C322   1.409   1_565  A
C322        C323   1.398       .  A
C323        C324   1.397       .  A
C323        H330   1.085       .  S
O331       Cu339   2.003       .  S
O331        C341   1.276       .  A
O332       Cu339   2.003       .  S
O332        C342   1.275       .  A
O333       Cu339   2.003       .  S
O333        C343   1.275       .  A
O334       Cu339   2.001       .  S
O334        C344   1.275       .  A
O335       Cu340   1.997       .  S
O335        C344   1.275       .  A
O336       Cu340   1.996       .  S
O336        C343   1.275       .  A
O337       Cu340   1.996       .  S
O337        C342   1.275       .  A
O338       Cu340   1.999       .  S
O338        C341   1.275       .  A
Cu339      Cu340   2.383       .  S
C341        C514   1.428       .  S
C342        C517   1.426       .  S
C343        C519   1.427       .  S
C344        C515   1.426       .  S
O345       Cu353   2.014       .  S
O345        C355   1.277       .  A
O346       Cu353   2.014       .  S
O346        C356   1.277       .  A
O347       Cu353   2.013       .  S
O347        C357   1.277       .  A
O348       Cu353   2.014       .  S
O348        C358   1.277       .  A
O349       Cu354   2.023       .  S
O349        C358   1.278       .  A
O350       Cu354   2.023       .  S
O350        C357   1.278       .  A
O351       Cu354   2.025       .  S
O351        C356   1.278       .  A
O352       Cu354   2.025       .  S
O352        C355   1.278       .  A
Cu353      Cu354   2.377       .  S
C355        C527   1.443       .  S
C356        C512   1.443       .  S
C357        C510   1.442       .  S
C358        C525   1.442       .  S
C359        N364   1.355       .  A
C359        C385   1.461       .  S
N360        C361   1.354       .  A
C361        C520   1.427       .  S
N362        C363   1.355       .  A
C363        C518   1.427       .  S
C363        N364   1.354       .  A
C365        N366   1.362       .  A
C365        C383   1.481       .  S
N366        C367   1.360       .  A
C367        C511   1.443       .  S
C367        N368   1.356       .  A
C369        C509   1.442       .  S
C369        N370   1.359       .  A
C371        N376   1.362   1_554  A
C371        C396   1.481       .  S
N372        C373   1.360       .  A
C373        C534   1.443       .  S
N374        C375   1.356   1_554  A
C375        C535   1.442       .  S
C375        N376   1.359       .  A
C377        N382   1.356   1_554  A
C377        C398   1.461       .  S
N378        C379   1.354       .  A
C379        C507   1.427       .  S
N380        C381   1.355   1_554  A
C381        C506   1.427       .  S
C381        N382   1.354       .  A
C383        C384   1.397       .  A
C383        C388   1.417       .  A
C384        C385   1.398       .  A
C384        H403   1.085       .  S
C385        C386   1.409       .  A
C386        C387   1.413       .  A
C386        C393   1.410       .  A
C387        C388   1.424       .  A
C387        C392   1.419   1_556  A
C388        C389   1.403       .  A
C389        C390   1.393   1_556  A
C389        H399   1.083       .  S
C390        C391   1.409       .  A
C390        H400   1.082       .  S
C391        C392   1.413       .  A
C391        C398   1.409   1_455  A
C392        C395   1.424       .  A
C393        C394   1.393   1_556  A
C393        H401   1.082       .  S
C394        C395   1.403       .  A
C394        H402   1.084       .  S
C395        C396   1.417   1_455  A
C396        C397   1.397       .  A
C397        C398   1.398       .  A
C397        H404   1.085       .  S
O405       Cu413   1.995       .  S
O405        C415   1.275       .  A
O406       Cu413   1.998       .  S
O406        C416   1.275       .  A
O407       Cu413   1.997       .  S
O407        C417   1.275       .  A
O408       Cu413   1.995       .  S
O408        C418   1.275       .  A
O409       Cu414   2.000       .  S
O409        C418   1.275       .  A
O410       Cu414   1.999       .  S
O410        C417   1.275       .  A
O411       Cu414   2.002       .  S
O411        C416   1.275       .  A
O412       Cu414   2.002       .  S
O412        C415   1.275       .  A
Cu413      Cu414   2.383       .  S
C415        C523   1.426       .  S
C416        C504   1.427       .  S
C417        C501   1.426       .  S
C418        C521   1.425       .  S
O419       Cu427   2.002       .  S
O419        C429   1.275       .  A
O420       Cu427   2.001       .  S
O420        C430   1.275       .  A
O421       Cu427   2.003       .  S
O421        C431   1.276       .  A
O422       Cu427   2.003       .  S
O422        C432   1.275       .  A
O423       Cu428   1.996       .  S
O423        C432   1.275       .  A
O424       Cu428   1.999       .  S
O424        C431   1.275       .  A
O425       Cu428   1.997       .  S
O425        C430   1.275       .  A
O426       Cu428   1.996       .  S
O426        C429   1.275       .  A
Cu427      Cu428   2.383       .  S
C429        C505   1.426       .  S
C430        C498   1.426       .  S
C431        C499   1.428       .  S
C432        C508   1.426       .  S
O433       Cu441   2.002       .  S
O433        C443   1.275       .  A
O434       Cu441   2.002       .  S
O434        C444   1.275       .  A
O435       Cu441   1.999       .  S
O435        C445   1.275       .  A
O436       Cu441   2.000       .  S
O436        C446   1.275       .  A
O437       Cu442   1.995       .  S
O437        C446   1.275       .  A
O438       Cu442   1.997       .  S
O438        C445   1.275       .  A
O439       Cu442   1.998       .  S
O439        C444   1.275       .  A
O440       Cu442   1.996       .  S
O440        C443   1.275       .  A
Cu441      Cu442   2.383       .  S
C443        C530   1.426       .  S
C444        C494   1.427       .  S
C445        C496   1.426       .  S
C446        C531   1.425       .  S
C447        N452   1.355       .  A
N448        C449   1.354       .  A
C449        C513   1.428       .  S
N450        C451   1.355       .  A
C451        C516   1.427       .  S
C451        N452   1.353       .  A
C453        N454   1.355       .  A
C453        C471   1.459       .  S
N454        C455   1.353       .  A
C455        C495   1.426       .  S
C455        N456   1.354       .  A
C457        C493   1.427       .  S
C457        N458   1.354       .  A
C459        N460   1.356       .  A
C459        C484   1.459       .  S
N460        C461   1.354       .  A
C461        C503   1.427       .  S
C461        N462   1.355       .  A
C463        C502   1.426       .  S
C463        N464   1.353       .  A
C465        N470   1.355       .  A
C465        C486   1.460       .  S
N466        C467   1.354       .  A
C467        C500   1.428       .  S
C467        N468   1.355   1_556  A
C469        C497   1.427       .  S
C469        N470   1.353       .  A
C471        C472   1.392       .  A
C471        C476   1.409       .  A
C472        C473   1.392       .  A
C472        H491   1.085       .  S
C473        C474   1.409       .  A
C474        C475   1.417       .  A
C474        C481   1.405       .  A
C475        C476   1.417       .  A
C475        C480   1.414       .  A
C476        C477   1.406       .  A
C477        C478   1.391       .  A
C477        H487   1.083       .  S
C478        C479   1.405       .  A
C478        H488   1.083       .  S
C479        C480   1.417       .  A
C479        C486   1.409       .  A
C480        C483   1.417       .  A
C481        C482   1.391       .  A
C481        H489   1.082       .  S
C482        C483   1.406       .  A
C482        H490   1.083       .  S
C483        C484   1.408       .  A
C484        C485   1.392       .  A
C485        C486   1.392       .  A
C485        H492   1.086       .  S
C493        C494   1.201       .  T
C495        C496   1.200       .  T
C497        C498   1.201       .  T
C499        C500   1.202       .  T
C501        C502   1.200       .  T
C503        C504   1.201       .  T
C505        C506   1.201       .  T
C507        C508   1.201       .  T
C509        C510   1.210       .  T
C511        C512   1.210       .  T
C513        C514   1.202       .  T
C515        C516   1.201       .  T
C517        C518   1.201       .  T
C519        C520   1.201       .  T
C521        C522   1.200       .  T
C523        C524   1.200       .  T
C525        C526   1.210       .  T
C527        C528   1.210       .  T
C529        C530   1.200       .  T
C531        C532   1.200       .  T
C533        C534   1.210       .  T
C535        C536   1.210       .  T
C537        C538   1.210       .  T
C539        C540   1.210       .  T
