geometry optimzed in LAMMPS
_audit_creation_date              2020-11-30 
_audit_creation_method            'lammps2cif' 
_symmetry_space_group_name_H-M    'P1' 
_symmetry_Int_Tables_number       1 
_symmetry_cell_setting            triclinic 
loop_ 
_symmetry_equiv_pos_as_xyz 
  x,y,z 
_cell_length_a                    45.33340063 
_cell_length_b                    45.31740508437032 
_cell_length_c                    33.81726209619969 
_cell_angle_alpha                 90.0267462244215 
_cell_angle_beta                  89.715773646673 
_cell_angle_gamma                 90.00144290716237 
loop_ 
_atom_site_label 
_atom_site_type_symbol 
_atom_site_fract_x 
_atom_site_fract_y 
_atom_site_fract_z 
_atom_site_charge 
C1          C  0.36522159  0.37336175  0.99947432     0.79200
N2          N  0.35441871  0.36267849  0.29837200    -0.79100
C3          C  0.33307365  0.34168401  0.29844270     0.81700
N4          N  0.32242517  0.33118971  0.33321823    -0.79000
C5          C  0.33302614  0.34163187  0.03436750     0.81800
N6          N  0.35460165  0.36242624  0.03421546    -0.80700
C7          C  0.15565554  0.37412895  0.00052289     0.79200
N8          N  0.16658687  0.36264779  0.29927866    -0.79100
C9          C  0.18643941  0.34030299  0.29991634     0.81700
N10         N  0.19572409  0.32927645  0.33495848    -0.79000
C11         C  0.18518212  0.34061748  0.03630399     0.81800
N12         N  0.16504760  0.36286427  0.03563053    -0.80700
C13         C  0.36667581  0.16206732  0.33364598     0.79200
N14         N  0.35648755  0.17312932  0.29878544    -0.79100
C15         C  0.33529176  0.19432704  0.29840198     0.81600
N16         N  0.32408107  0.20468245  0.33294840    -0.79000
C17         C  0.33424105  0.19410378  0.03430330     0.81800
N18         N  0.35500339  0.17255166  0.03442897    -0.80700
N19         N  0.01072180  0.47126029  0.32125654    -0.37600
N20         N  0.05581377  0.01720238  0.32576914    -0.58200
N21         N  0.01001811  0.06232663  0.32520857    -0.37600
N22         N  0.46485221  0.01646060  0.32625777    -0.58200
C23         C  0.03495837  0.45482124  0.32889495     0.26000
C24         C  0.48683861  0.45429737  0.32910737     0.26000
C25         C  0.03398572  0.07897150  0.33351572     0.26000
C26         C  0.48584495  0.07858053  0.33409414     0.26000
C27         C  0.07300918  0.49369107  0.31804240     0.34600
C28         C  0.07259844  0.04135012  0.31906655     0.34600
C29         C  0.44777781  0.49244261  0.31969187     0.34600
C30         C  0.44736639  0.04036018  0.32147089     0.34600
C31         C  0.02608429  0.42701653  0.00877262    -0.22900
C32         C  0.49602138  0.42653810  0.34113965    -0.22900
C33         C  0.02497245  0.10629406  0.34749770    -0.22900
C34         C  0.49457625  0.10610076  0.34772452    -0.22900
C35         C  0.10084966  0.00277540  0.30574002    -0.23900
C36         C  0.10057449  0.03304345  0.30662326    -0.23900
C37         C  0.41919469  0.00129445  0.31099152    -0.23900
C38         C  0.41893523  0.03157723  0.31225198    -0.23900
C39         C  0.06458529  0.46395603  0.32353078    -0.19300
C40         C  0.45700844  0.46281841  0.32427671    -0.19300
C41         C  0.45622197  0.06990472  0.32783224    -0.19300
C42         C  0.06368458  0.07072261  0.32657041    -0.19300
H43         H  0.04016455  0.40877389  0.01705705     0.13600
H44         H  0.48191225  0.40822970  0.01692281     0.13600
H45         H  0.03881974  0.12462896  0.35613267     0.13600
H46         H  0.48057839  0.12431862  0.35653079     0.13600
H47         H  0.11956909  0.48919956  0.29852629     0.11900
H48         H  0.11895868  0.04730097  0.29929820     0.11900
H49         H  0.40060049  0.48709481  0.30409367     0.11900
H50         H  0.39991193  0.04550695  0.30734708     0.11900
H51         H  0.01050724  0.49236769  0.30955310     0.25200
H52         H  0.01012574  0.04175117  0.31193794     0.25200
C53         C  0.15593019  0.15948160  0.33395127     0.79200
N54         N  0.16594316  0.17035891  0.03590991    -0.79100
C55         C  0.18680545  0.19189423  0.03646217     0.81700
N56         N  0.19745352  0.20288761  0.33539837    -0.79000
C57         C  0.18752852  0.19248264  0.30029756     0.81800
N58         N  0.16678770  0.17089703  0.29962228    -0.80700
N59         N  0.29436330  0.32280593  0.21226374    -0.07100
N60         N  0.29751747  0.34063830  0.24286253    -0.59200
N61         N  0.31488148  0.30242817  0.12078406    -0.06800
N62         N  0.33272402  0.30610184  0.09018719    -0.61400
N63         N  0.29406924  0.32268383  0.12087793    -0.06400
N64         N  0.29729346  0.34055598  0.09030268    -0.59200
N65         N  0.31516129  0.30253756  0.21208274    -0.06100
N66         N  0.33293771  0.30617312  0.24253184    -0.61700
C67         C  0.32172833  0.33007680  0.26119569     0.95100
C68         C  0.32156602  0.33001942  0.07170727     0.94900
N69         N  0.29532077  0.21222083  0.12117506    -0.07300
N70         N  0.29880743  0.19442066  0.09055790    -0.59800
N71         N  0.31616732  0.23309051  0.21216827    -0.05400
N72         N  0.33426773  0.22980137  0.24236370    -0.61100
N73         N  0.29586085  0.21232966  0.21249650    -0.07300
N74         N  0.29970812  0.19448654  0.24290660    -0.60100
N75         N  0.31557433  0.23304577  0.12080962    -0.05100
N76         N  0.33323306  0.22988544  0.08991036    -0.61100
Mn77       Mn  0.31648375  0.26778874  0.16645641     1.18400
C78         C  0.32256841  0.20567165  0.07155774     0.97200
C79         C  0.32383194  0.20552653  0.26096495     0.97800
N80         N  0.22456914  0.32205591  0.12203200    -0.07300
N81         N  0.22056852  0.34022311  0.09200616    -0.63600
N82         N  0.20491988  0.30114147  0.21357865    -0.06100
N83         N  0.18739284  0.30425967  0.24461827    -0.64300
N84         N  0.22515422  0.32196918  0.21312434    -0.06800
N85         N  0.22178407  0.33976425  0.24374015    -0.63900
N86         N  0.20432464  0.30122281  0.12211683    -0.05700
N87         N  0.18616530  0.30476176  0.09201723    -0.64600
Mn88       Mn  0.25953616  0.32338982  0.16702661     1.10700
C89         C  0.19642772  0.32931562  0.07385131     0.98400
C90         C  0.19816420  0.32844845  0.26292434     0.98500
N91         N  0.22644766  0.21160845  0.21376286    -0.06900
N92         N  0.22336201  0.19384848  0.24448207    -0.62200
N93         N  0.20509005  0.23146503  0.12245757    -0.06200
N94         N  0.18705972  0.22756112  0.09231763    -0.59000
N95         N  0.22582095  0.21112029  0.12237436    -0.07500
N96         N  0.22231785  0.19295178  0.09218478    -0.61800
N97         N  0.20563846  0.23187148  0.21388473    -0.06500
N98         N  0.18796229  0.22833362  0.24470533    -0.59000
Mn99       Mn  0.26087968  0.21079162  0.16745211     1.20200
Mn100      Mn  0.20394934  0.26640922  0.16794540     1.10100
Cl101      Cl  0.26020535  0.26708763  0.16716517    -0.86900
C102        C  0.19924926  0.20451391  0.26330492     0.95400
C103        C  0.19794853  0.20334702  0.07400555     0.95200
C104        C  0.08697713  0.09388494  0.32811954    -0.07100
C105        C  0.10744006  0.09321027  0.02642576    -0.18200
C106        C  0.13066107  0.11352428  0.02828916     0.10100
C107        C  0.13279868  0.13622759  0.33262926    -0.07000
C108        C  0.11204689  0.13707221  0.30183036    -0.18300
C109        C  0.08961205  0.11595536  0.29888516     0.10100
S110        S  0.15785471  0.10769857  0.06618272    -0.33200
S111        S  0.06533440  0.11811274  0.25687069    -0.33200
H112        H  0.06063417  0.08756942  0.25322089     0.28100
H113        H  0.18208248  0.11435495  0.04158187     0.28100
H114        H  0.10594402  0.07592537  0.04849246     0.18700
H115        H  0.11338044  0.15424899  0.27961325     0.18700
C116        C  0.43318439  0.09323338  0.32880466    -0.07100
C117        C  0.41971514  0.10014078  0.03153955    -0.18200
C118        C  0.39814454  0.12216439  0.03441226     0.10100
C119        C  0.38992063  0.13846849  0.33359203    -0.07000
C120        C  0.40159771  0.12919314  0.29684962    -0.18300
C121        C  0.42309570  0.10709708  0.29414698     0.10100
S122        S  0.38304876  0.12834916  0.08305166    -0.33200
S123        S  0.43608246  0.09695538  0.24546139    -0.33200
H124        H  0.46480152  0.08895434  0.25656171     0.28100
H125        H  0.39499832  0.15696339  0.08545230     0.28100
H126        H  0.42641005  0.08841198  0.05794935     0.18700
H127        H  0.39410894  0.13925789  0.26965662     0.18700
C128        C  0.13296201  0.39787868  0.99884785    -0.07100
C129        C  0.11431239  0.39876879  0.29871190    -0.18200
C130        C  0.09236609  0.42026428  0.29488915     0.10100
C131        C  0.08805149  0.44108768  0.99249993    -0.07000
C132        C  0.10679835  0.44058847  0.02536840    -0.18300
C133        C  0.12940160  0.41965508  0.02863090     0.10100
S134        S  0.07021518  0.41966473  0.25071903    -0.33200
S135        S  0.15352907  0.42305436  0.07056274    -0.33200
H136        H  0.17944704  0.41801473  0.04851065     0.28100
H137        H  0.06544326  0.45028225  0.24885935     0.28100
H138        H  0.11663767  0.38244691  0.27548413     0.18700
H139        H  0.10402366  0.45699053  0.04843119     0.18700
C140        C  0.38885529  0.39625842  0.99875200    -0.07100
C141        C  0.40753696  0.39768199  0.29877925    -0.18200
C142        C  0.42950603  0.41920939  0.29516258     0.10100
C143        C  0.43362776  0.43968157  0.99271362    -0.07000
C144        C  0.41510749  0.43856194  0.02599167    -0.18300
C145        C  0.39248926  0.41751105  0.02918591     0.10100
S146        S  0.45102333  0.41973060  0.25013602    -0.33200
S147        S  0.36774486  0.41950863  0.07121808    -0.33200
H148        H  0.37816946  0.44635246  0.08670205     0.28100
H149        H  0.45607236  0.45032836  0.24953443     0.28100
H150        H  0.40479901  0.38202585  0.27485473     0.18700
H151        H  0.41825105  0.45463693  0.04929320     0.18700
C152        C  0.36529191  0.37337323  0.33299937     0.79200
N153        N  0.35431419  0.36267382  0.63150623    -0.79100
C154        C  0.33294772  0.34169883  0.63160016     0.81700
N155        N  0.32225968  0.33126158  0.66638755    -0.79000
C156        C  0.33319906  0.34151857  0.36789058     0.81800
N157        N  0.35471249  0.36238493  0.36774068    -0.80700
C158        C  0.15571931  0.37413359  0.33354080     0.79200
N159        N  0.16632301  0.36265544  0.63282302    -0.79100
C160        C  0.18627152  0.34038235  0.63344126     0.81700
N161        N  0.19561316  0.32942641  0.66850332    -0.79000
C162        C  0.18505544  0.34045984  0.36937958     0.81800
N163        N  0.16499552  0.36278732  0.36867194    -0.80700
C164        C  0.36586451  0.16134953  0.66689938     0.79200
N165        N  0.35572142  0.17246360  0.63205005    -0.79100
C166        C  0.33493922  0.19406490  0.63170301     0.81600
N167        N  0.32405552  0.20472642  0.66626433    -0.79000
C168        C  0.33401732  0.19389116  0.36777876     0.81800
N169        N  0.35512570  0.17268489  0.36798682    -0.80700
N170        N  0.01056679  0.47128760  0.65459005    -0.37600
N171        N  0.05557637  0.01728214  0.65960589    -0.58200
N172        N  0.00981034  0.06235794  0.65887799    -0.37600
N173        N  0.46465534  0.01644109  0.65992708    -0.58200
C174        C  0.03478314  0.45488929  0.66245128     0.26000
C175        C  0.48665582  0.45436767  0.66251243     0.26000
C176        C  0.03373229  0.07896054  0.66752411     0.26000
C177        C  0.48562563  0.07850382  0.66789578     0.26000
C178        C  0.07281475  0.49369500  0.65127211     0.34600
C179        C  0.07234320  0.04143819  0.65285726     0.34600
C180        C  0.44768639  0.49254350  0.65304109     0.34600
C181        C  0.44725611  0.04034329  0.65468922     0.34600
C182        C  0.02637127  0.42687606  0.34103960    -0.22900
C183        C  0.49580022  0.42666553  0.67482639    -0.22900
C184        C  0.02465337  0.10615399  0.68190100    -0.22900
C185        C  0.49428313  0.10590316  0.68201846    -0.22900
C186        C  0.10054775  0.00288168  0.63928663    -0.23900
C187        C  0.10028066  0.03315050  0.64024597    -0.23900
C188        C  0.41916001  0.00129831  0.64374984    -0.23900
C189        C  0.41893325  0.03158470  0.64486724    -0.23900
C190        C  0.06439711  0.46399245  0.65698292    -0.19300
C191        C  0.45685430  0.46289154  0.65750467    -0.19300
C192        C  0.45605388  0.06986677  0.66124562    -0.19300
C193        C  0.06343381  0.07079326  0.66047854    -0.19300
H194        H  0.04050481  0.40857620  0.34892952     0.13600
H195        H  0.48227921  0.40792743  0.34915115     0.13600
H196        H  0.03846705  0.12442922  0.69085443     0.13600
H197        H  0.48021226  0.12400021  0.69107595     0.13600
H198        H  0.11916395  0.48910646  0.63093172     0.11900
H199        H  0.11864117  0.04741992  0.63285671     0.11900
H200        H  0.40056292  0.48732171  0.63711572     0.11900
H201        H  0.40000202  0.04553976  0.63948158     0.11900
H202        H  0.01037823  0.49232820  0.64265408     0.25200
H203        H  0.00995682  0.04190093  0.64522982     0.25200
C204        C  0.15567057  0.15957368  0.66752946     0.79200
N205        N  0.16582257  0.17025885  0.36907951    -0.79100
C206        C  0.18663459  0.19184077  0.36980898     0.81700
N207        N  0.19734524  0.20283720  0.66859923    -0.79000
C208        C  0.18732067  0.19235697  0.63359715     0.81800
N209        N  0.16650798  0.17083991  0.63310171    -0.80700
N210        N  0.29417441  0.32271404  0.54552390    -0.07100
N211        N  0.29737798  0.34060674  0.57604764    -0.59200
N212        N  0.31472988  0.30222956  0.45412897    -0.06800
N213        N  0.33269659  0.30593625  0.42366642    -0.61400
N214        N  0.29395200  0.32252369  0.45417341    -0.06400
N215        N  0.29733964  0.34046270  0.42369527    -0.59200
N216        N  0.31495258  0.30242334  0.54537850    -0.06100
N217        N  0.33276656  0.30610872  0.57577733    -0.61700
C218        C  0.32159974  0.33006353  0.59437109     0.95100
C219        C  0.32166895  0.32992811  0.40521856     0.94900
N220        N  0.29500133  0.21203398  0.45455542    -0.07300
N221        N  0.29847424  0.19421989  0.42394492    -0.59800
N222        N  0.31585203  0.23294767  0.54556821    -0.05400
N223        N  0.33393287  0.22963767  0.57577974    -0.61100
N224        N  0.29556066  0.21217343  0.54583149    -0.07300
N225        N  0.29940798  0.19428561  0.57618834    -0.60100
N226        N  0.31528842  0.23282487  0.45422294    -0.05100
N227        N  0.33296672  0.22962254  0.42336234    -0.61100
Mn228      Mn  0.31623376  0.26761341  0.49982497     1.18400
C229        C  0.32227040  0.20543515  0.40498859     0.97200
C230        C  0.32350477  0.20532379  0.59429964     0.97800
N231        N  0.22437645  0.32194641  0.45525224    -0.07300
N232        N  0.22044375  0.34003873  0.42512157    -0.63600
N233        N  0.20469056  0.30114882  0.54700798    -0.06100
N234        N  0.18720341  0.30428819  0.57810177    -0.64300
N235        N  0.22493328  0.32197204  0.54649745    -0.06800
N236        N  0.22160139  0.33977293  0.57713486    -0.63900
N237        N  0.20408787  0.30115420  0.45539818    -0.05700
N238        N  0.18596961  0.30465206  0.42523214    -0.64600
Mn239      Mn  0.25934328  0.32329733  0.50030316     1.10700
C240        C  0.19629632  0.32914281  0.40696069     0.98400
C241        C  0.19799340  0.32848279  0.59639904     0.98500
N242        N  0.22617808  0.21151312  0.54708215    -0.06900
N243        N  0.22306436  0.19368708  0.57772047    -0.62200
N244        N  0.20480941  0.23138516  0.45586142    -0.06200
N245        N  0.18678737  0.22747287  0.42571319    -0.59000
N246        N  0.22552755  0.21102664  0.45579682    -0.07500
N247        N  0.22202441  0.19284324  0.42563049    -0.61800
N248        N  0.20538926  0.23179850  0.54725105    -0.06500
N249        N  0.18769225  0.22820364  0.57803377    -0.59000
Mn250      Mn  0.26058403  0.21067298  0.50081343     1.20200
Mn251      Mn  0.20369445  0.26636817  0.50132927     1.10100
Cl252      Cl  0.25995629  0.26698544  0.50051519    -0.86900
C253        C  0.19894326  0.20432379  0.59653629     0.95400
C254        C  0.19766524  0.20323478  0.40743761     0.95200
C255        C  0.08668958  0.09399173  0.66199634    -0.07100
C256        C  0.10751664  0.09300373  0.35898696    -0.18200
C257        C  0.13072684  0.11332255  0.36101326     0.10100
C258        C  0.13248011  0.13637717  0.66639729    -0.07000
C259        C  0.11164878  0.13724065  0.63570047    -0.18300
C260        C  0.08920912  0.11612594  0.63282491     0.10100
S261        S  0.15795699  0.10732448  0.39881118    -0.33200
S262        S  0.06477877  0.11839992  0.59097471    -0.33200
H263        H  0.05982861  0.08789618  0.58737333     0.28100
H264        H  0.18215888  0.11417870  0.37426012     0.28100
H265        H  0.10597016  0.07567570  0.38098743     0.18700
H266        H  0.11292440  0.15443628  0.61350292     0.18700
C267        C  0.43296730  0.09312828  0.66215565    -0.07100
C268        C  0.42152268  0.10180811  0.36540333    -0.18200
C269        C  0.40048103  0.12432591  0.36841131     0.10100
C270        C  0.38900886  0.13767116  0.66682085    -0.07000
C271        C  0.40195715  0.12964228  0.63031809    -0.18300
C272        C  0.42380664  0.10788820  0.62768734     0.10100
S273        S  0.38852527  0.13333159  0.41782409    -0.33200
S274        S  0.43841644  0.09935951  0.57925561    -0.33200
H275        H  0.46674480  0.09090547  0.59143349     0.28100
H276        H  0.39875289  0.16259474  0.41509246     0.28100
H277        H  0.42933992  0.09111319  0.39203965     0.18700
H278        H  0.39528604  0.14052290  0.60330050     0.18700
C279        C  0.13310105  0.39795538  0.33175834    -0.07100
C280        C  0.11408895  0.39881562  0.63224238    -0.18200
C281        C  0.09223278  0.42038586  0.62834746     0.10100
C282        C  0.08829739  0.44126201  0.32519010    -0.07000
C283        C  0.10695384  0.44071696  0.35815465    -0.18300
C284        C  0.12950563  0.41973190  0.36152604     0.10100
S285        S  0.07037604  0.42009701  0.58392182    -0.33200
S286        S  0.15351434  0.42303868  0.40359145    -0.33200
H287        H  0.17948462  0.41788088  0.38169937     0.28100
H288        H  0.06609346  0.45079020  0.58205271     0.28100
H289        H  0.11647004  0.38255222  0.60895180     0.18700
H290        H  0.10412540  0.45709733  0.38123306     0.18700
C291        C  0.38894044  0.39627905  0.33223031    -0.07100
C292        C  0.40753709  0.39760803  0.63203125    -0.18200
C293        C  0.42948072  0.41916859  0.62841797     0.10100
C294        C  0.43383714  0.43956757  0.32611384    -0.07000
C295        C  0.41566273  0.43820472  0.35971160    -0.18300
C296        C  0.39304646  0.41715532  0.36303578     0.10100
S297        S  0.45114352  0.41960197  0.58352078    -0.33200
S298        S  0.36887469  0.41871960  0.40570907    -0.33200
H299        H  0.38182815  0.44333639  0.42409134     0.28100
H300        H  0.45589800  0.45024638  0.58268310     0.28100
H301        H  0.40491354  0.38185048  0.60820174     0.18700
H302        H  0.41906302  0.45412349  0.38313517     0.18700
C303        C  0.36516162  0.37340740  0.66612646     0.79200
N304        N  0.35435502  0.36267307  0.96484021    -0.79100
C305        C  0.33293236  0.34175312  0.96491639     0.81700
N306        N  0.32222307  0.33132416  0.99969811    -0.79000
C307        C  0.33301451  0.34162398  0.70105339     0.81800
N308        N  0.35454614  0.36247216  0.70088064    -0.80700
C309        C  0.15543716  0.37412982  0.66710108     0.79200
N310        N  0.16647259  0.36262138  0.96623196    -0.79100
C311        C  0.18641450  0.34034305  0.96683883     0.81700
N312        N  0.19581456  0.32941116  0.00187742    -0.79000
C313        C  0.18490946  0.34059535  0.70292392     0.81800
N314        N  0.16476330  0.36283261  0.70222134    -0.80700
C315        C  0.36596407  0.16142187  0.00002653     0.79200
N316        N  0.35566084  0.17242650  0.96519651    -0.79100
C317        C  0.33490462  0.19406338  0.96490655     0.81600
N318        N  0.32419439  0.20484613  0.99950322    -0.79000
C319        C  0.33393060  0.19386370  0.70108324     0.81800
N320        N  0.35468844  0.17231069  0.70126936    -0.80700
N321        N  0.01058248  0.47125091  0.98817039    -0.37600
N322        N  0.05573842  0.01729236  0.99355223    -0.58200
N323        N  0.00993729  0.06236140  0.99236303    -0.37600
N324        N  0.46479398  0.01642199  0.99359732    -0.58200
C325        C  0.03475764  0.45483071  0.99621813     0.26000
C326        C  0.48663324  0.45439187  0.99610602     0.26000
C327        C  0.03383724  0.07895716  0.00116924     0.26000
C328        C  0.48572396  0.07849527  0.00138713     0.26000
C329        C  0.07291960  0.49355478  0.98534624     0.34600
C330        C  0.07254890  0.04143792  0.98692492     0.34600
C331        C  0.44768339  0.49257514  0.98643346     0.34600
C332        C  0.44739495  0.04030714  0.98817221     0.34600
C333        C  0.02618356  0.42700862  0.67484729    -0.22900
C334        C  0.49572001  0.42673166  0.00866324    -0.22900
C335        C  0.02471489  0.10610968  0.01562937    -0.22900
C336        C  0.49434375  0.10587868  0.01559454    -0.22900
C337        C  0.10088704  0.00285633  0.97400838    -0.23900
C338        C  0.10059778  0.03312237  0.97479585    -0.23900
C339        C  0.41935493  0.00121833  0.97725452    -0.23900
C340        C  0.41910735  0.03150917  0.97824963    -0.23900
C341        C  0.06441026  0.46385084  0.99083950    -0.19300
C342        C  0.45683532  0.46292209  0.99098161    -0.19300
C343        C  0.45616292  0.06985896  0.99460886    -0.19300
C344        C  0.06356638  0.07081799  0.99424050    -0.19300
H345        H  0.04031056  0.40875229  0.68293569     0.13600
H346        H  0.48203257  0.40810327  0.68296290     0.13600
H347        H  0.03850583  0.12436016  0.02473359     0.13600
H348        H  0.48024255  0.12395435  0.02464441     0.13600
H349        H  0.11946842  0.48893830  0.96583105     0.11900
H350        H  0.11901800  0.04736848  0.96759777     0.11900
H351        H  0.40047851  0.48738570  0.97088879     0.11900
H352        H  0.40018935  0.04544431  0.97269481     0.11900
H353        H  0.01045411  0.49225667  0.97610376     0.25200
H354        H  0.01012398  0.04193509  0.97863009     0.25200
C355        C  0.15590085  0.15955118  0.00087569     0.79200
N356        N  0.16564894  0.17043980  0.70256292    -0.79100
C357        C  0.18654086  0.19194789  0.70309986     0.81700
N358        N  0.19749731  0.20289700  0.00195971    -0.79000
C359        C  0.18741066  0.19247511  0.96695207     0.81800
N360        N  0.16664405  0.17091156  0.96645182    -0.80700
N361        N  0.29416494  0.32280562  0.87881583    -0.07100
N362        N  0.29736670  0.34068677  0.90935284    -0.59200
N363        N  0.31465105  0.30235403  0.78736874    -0.06800
N364        N  0.33256695  0.30604926  0.75684847    -0.61400
N365        N  0.29387075  0.32264708  0.78744805    -0.06400
N366        N  0.29720558  0.34057128  0.75694066    -0.59200
N367        N  0.31493343  0.30250789  0.87865955    -0.06100
N368        N  0.33274407  0.30617882  0.90906686    -0.61700
C369        C  0.32158281  0.33013213  0.92767539     0.95100
C370        C  0.32150721  0.33002942  0.73840245     0.94900
N371        N  0.29495897  0.21212940  0.78781905    -0.07300
N372        N  0.29845390  0.19426789  0.75727039    -0.59800
N373        N  0.31577982  0.23300962  0.87881770    -0.05400
N374        N  0.33385088  0.22968015  0.90903499    -0.61100
N375        N  0.29549108  0.21223117  0.87906064    -0.07300
N376        N  0.29933472  0.19432012  0.90939811    -0.60100
N377        N  0.31523170  0.23293289  0.78744185    -0.05100
N378        N  0.33291441  0.22970096  0.75658539    -0.61100
Mn379      Mn  0.31618436  0.26771029  0.83307068     1.18400
C380        C  0.32224241  0.20546646  0.73828921     0.97200
C381        C  0.32342749  0.20535149  0.92752972     0.97800
N382        N  0.22429594  0.32208703  0.78869773    -0.07300
N383        N  0.22031396  0.34021508  0.75862235    -0.63600
N384        N  0.20472561  0.30117005  0.88037647    -0.06100
N385        N  0.18727454  0.30427767  0.91150522    -0.64300
N386        N  0.22497683  0.32198452  0.87987040    -0.06800
N387        N  0.22169423  0.33974803  0.91054433    -0.63900
N388        N  0.20401316  0.30129175  0.78885047    -0.05700
N389        N  0.18584708  0.30481829  0.75875242    -0.64600
Mn390      Mn  0.25931491  0.32339060  0.83364378     1.10700
C391        C  0.19614686  0.32932388  0.74050616     0.98400
C392        C  0.19810390  0.32844498  0.92981645     0.98500
N393        N  0.22613710  0.21158523  0.88031181    -0.06900
N394        N  0.22307719  0.19379405  0.91099401    -0.62200
N395        N  0.20478474  0.23153922  0.78908932    -0.06200
N396        N  0.18676699  0.22764736  0.75893068    -0.59000
N397        N  0.22550943  0.21118721  0.78899472    -0.07500
N398        N  0.22202078  0.19303018  0.75879978    -0.61800
N399        N  0.20535508  0.23187292  0.88051583    -0.06500
N400        N  0.18771574  0.22831996  0.91136816    -0.59000
Mn401      Mn  0.26053551  0.21077010  0.83403983     1.20200
Mn402      Mn  0.20366480  0.26645949  0.83465212     1.10100
Cl403      Cl  0.25992022  0.26708099  0.83378972    -0.86900
C404        C  0.19899982  0.20445985  0.92987992     0.95400
C405        C  0.19766405  0.20343177  0.74061973     0.95200
C406        C  0.08679815  0.09405599  0.99567872    -0.07100
C407        C  0.10729321  0.09310908  0.69278979    -0.18200
C408        C  0.13045847  0.11348364  0.69480451     0.10100
C409        C  0.13271813  0.13633649  0.99976897    -0.07000
C410        C  0.11185391  0.13716691  0.96910353    -0.18300
C411        C  0.08932754  0.11612142  0.96640841     0.10100
S412        S  0.15765232  0.10762178  0.73268920    -0.33200
S413        S  0.06475793  0.11842509  0.92470907    -0.33200
H414        H  0.05986660  0.08791338  0.92107836     0.28100
H415        H  0.18187614  0.11441569  0.70814962     0.28100
H416        H  0.10580604  0.07576528  0.71477466     0.18700
H417        H  0.11313518  0.15431120  0.94683538     0.18700
C418        C  0.43305488  0.09313031  0.99536295    -0.07100
C419        C  0.41997405  0.10040018  0.69845939    -0.18200
C420        C  0.39847549  0.12248560  0.70140375     0.10100
C421        C  0.38906714  0.13769107  0.99992372    -0.07000
C422        C  0.40234682  0.12994165  0.96352740    -0.18300
C423        C  0.42416434  0.10812981  0.96092122     0.10100
S424        S  0.38417538  0.12933726  0.75031607    -0.33200
S425        S  0.43897036  0.09984568  0.91249842    -0.33200
H426        H  0.46676741  0.08981407  0.92467798     0.28100
H427        H  0.39561674  0.15820563  0.75137223     0.28100
H428        H  0.42695146  0.08889528  0.72491313     0.18700
H429        H  0.39592510  0.14106485  0.93657526     0.18700
C430        C  0.13279000  0.39792582  0.66536941    -0.07100
C431        C  0.11404510  0.39860630  0.96593731    -0.18200
C432        C  0.09204152  0.42005447  0.96222037     0.10100
C433        C  0.08808418  0.44130289  0.65871042    -0.07000
C434        C  0.10660746  0.44066389  0.69179487    -0.18300
C435        C  0.12913058  0.41965446  0.69520771     0.10100
S436        S  0.06975874  0.41937625  0.91817278    -0.33200
S437        S  0.15304360  0.42292266  0.73737965    -0.33200
H438        H  0.17906588  0.41789313  0.71554764     0.28100
H439        H  0.06493174  0.44998264  0.91626475     0.28100
H440        H  0.11633037  0.38226833  0.94272280     0.18700
H441        H  0.10371578  0.45700312  0.71491314     0.18700
C442        C  0.38880227  0.39631866  0.66535223    -0.07100
C443        C  0.40778831  0.39739206  0.96563698    -0.18200
C444        C  0.42965207  0.41903128  0.96200902     0.10100
C445        C  0.43365743  0.43965605  0.65926099    -0.07000
C446        C  0.41534271  0.43839682  0.69272611    -0.18300
C447        C  0.39273374  0.41734163  0.69601531     0.10100
S448        S  0.45140498  0.41942616  0.91719921    -0.33200
S449        S  0.36835163  0.41907392  0.73845750    -0.33200
H450        H  0.38074323  0.44421788  0.75625340     0.28100
H451        H  0.45581850  0.45011946  0.91610941     0.28100
H452        H  0.40533224  0.38149431  0.94194055     0.18700
H453        H  0.41863758  0.45439111  0.71608529     0.18700
C454        C  0.36526228  0.87330866  0.99927869     0.79200
N455        N  0.35456029  0.86258464  0.29813014    -0.79100
C456        C  0.33319932  0.84160157  0.29820559     0.81700
N457        N  0.32253512  0.83114093  0.33299712    -0.79000
C458        C  0.33313201  0.84151131  0.03422358     0.81800
N459        N  0.35469058  0.86232673  0.03403131    -0.80700
C460        C  0.15567112  0.87418640  0.00031644     0.79200
N461        N  0.16650128  0.86252763  0.29919456    -0.79100
C462        C  0.18637543  0.84020453  0.29979290     0.81700
N463        N  0.19575897  0.82923546  0.33481829    -0.79000
C464        C  0.18502194  0.84057215  0.03618922     0.81800
N465        N  0.16496848  0.86288840  0.03545158    -0.80700
C466        C  0.36609685  0.66147836  0.33335705     0.79200
N467        N  0.35591813  0.67259024  0.29852335    -0.79100
C468        C  0.33509564  0.69415553  0.29821090     0.81600
N469        N  0.32421280  0.70478607  0.33278941    -0.79000
C470        C  0.33399234  0.69389501  0.03429772     0.81800
N471        N  0.35485659  0.67244454  0.03448452    -0.80700
N472        N  0.01070134  0.97125877  0.32069365    -0.37600
N473        N  0.05574522  0.51727157  0.32609074    -0.58200
N474        N  0.00989224  0.56233897  0.32503553    -0.37600
N475        N  0.46480192  0.51639138  0.32641495    -0.58200
C476        C  0.03492281  0.95481157  0.32843137     0.26000
C477        C  0.48682352  0.95435069  0.32868859     0.26000
C478        C  0.03379631  0.57896131  0.33370587     0.26000
C479        C  0.48567793  0.57848214  0.33407725     0.26000
C480        C  0.07300251  0.99361063  0.31750325     0.34600
C481        C  0.07251485  0.54143690  0.31943019     0.34600
C482        C  0.44775245  0.99254737  0.31964364     0.34600
C483        C  0.44734536  0.54024935  0.32113838     0.34600
C484        C  0.02625981  0.92692713  0.00849606    -0.22900
C485        C  0.49598431  0.92662993  0.34090969    -0.22900
C486        C  0.02468955  0.60615347  0.34805536    -0.22900
C487        C  0.49430682  0.60590611  0.34813599    -0.22900
C488        C  0.10089296  0.50288901  0.30647187    -0.23900
C489        C  0.10055991  0.53315694  0.30724211    -0.23900
C490        C  0.41930079  0.50112913  0.31048660    -0.23900
C491        C  0.41901783  0.53141793  0.31147030    -0.23900
C492        C  0.06456231  0.96389531  0.32305059    -0.19300
C493        C  0.45699074  0.96289558  0.32393788    -0.19300
C494        C  0.45610646  0.56980060  0.32753861    -0.19300
C495        C  0.06352179  0.57080088  0.32682525    -0.19300
H496        H  0.04037702  0.90862808  0.01644277     0.13600
H497        H  0.48213084  0.90797530  0.01644139     0.13600
H498        H  0.03848219  0.62443116  0.35705571     0.13600
H499        H  0.48022145  0.62399373  0.35718548     0.13600
H500        H  0.11946405  0.98906081  0.29761159     0.11900
H501        H  0.11895294  0.54743087  0.30001724     0.11900
H502        H  0.40041667  0.98730535  0.30482977     0.11900
H503        H  0.40004988  0.54532654  0.30609958     0.11900
H504        H  0.01050311  0.99232760  0.30886089     0.25200
H505        H  0.01007065  0.54186562  0.31143093     0.25200
C506        C  0.15571857  0.65957572  0.33422439     0.79200
N507        N  0.16588333  0.67025958  0.03562235    -0.79100
C508        C  0.18670471  0.69182818  0.03624495     0.81700
N509        N  0.19733954  0.70288730  0.33532810    -0.79000
C510        C  0.18724649  0.69250157  0.30030468     0.81800
N511        N  0.16645876  0.67095915  0.29980573    -0.80700
N512        N  0.29432837  0.82271666  0.21210423    -0.07100
N513        N  0.29756433  0.84057528  0.24266771    -0.59200
N514        N  0.31480469  0.80227975  0.12059676    -0.06800
N515        N  0.33271083  0.80596102  0.09006080    -0.61400
N516        N  0.29402258  0.82256743  0.12067081    -0.06400
N517        N  0.29733786  0.84047006  0.09013575    -0.59200
N518        N  0.31510768  0.80243073  0.21189643    -0.06100
N519        N  0.33294858  0.80607737  0.24227964    -0.61700
C520        C  0.32180492  0.83001099  0.26094739     0.95100
C521        C  0.32163547  0.82992410  0.07158946     0.94900
N522        N  0.29506128  0.71206406  0.12113261    -0.07300
N523        N  0.29853269  0.69424466  0.09053139    -0.59800
N524        N  0.31592287  0.73299077  0.21207231    -0.05400
N525        N  0.33404143  0.72968155  0.24224232    -0.61100
N526        N  0.29560014  0.71224362  0.21241959    -0.07300
N527        N  0.29946748  0.69437906  0.24279795    -0.60100
N528        N  0.31532796  0.73287744  0.12073973    -0.05100
N529        N  0.33298134  0.72968750  0.08984742    -0.61100
Mn530      Mn  0.31631419  0.76765208  0.16631639     1.18400
C531        C  0.32229718  0.70547682  0.07151930     0.97200
C532        C  0.32360733  0.70540062  0.26082871     0.97800
N533        N  0.22444511  0.82196470  0.12187416    -0.07300
N534        N  0.22041724  0.84015790  0.09188136    -0.63600
N535        N  0.20477371  0.80107047  0.21339908    -0.06100
N536        N  0.18724848  0.80420150  0.24443902    -0.64300
N537        N  0.22504853  0.82186468  0.21296485    -0.06800
N538        N  0.22170389  0.83964319  0.24360237    -0.63900
N539        N  0.20417739  0.80114953  0.12197161    -0.05700
N540        N  0.18598208  0.80473071  0.09191887    -0.64600
Mn541      Mn  0.25945494  0.82328875  0.16685713     1.10700
C542        C  0.19623975  0.82929048  0.07376577     0.98400
C543        C  0.19806263  0.82835827  0.26277311     0.98500
N544        N  0.22615634  0.71152712  0.21369794    -0.06900
N545        N  0.22304575  0.69378684  0.24443602    -0.62200
N546        N  0.20487931  0.73136587  0.12231261    -0.06200
N547        N  0.18689973  0.72748651  0.09211172    -0.59000
N548        N  0.22558263  0.71099409  0.12229285    -0.07500
N549        N  0.22211213  0.69283041  0.09209059    -0.61800
N550        N  0.20534469  0.73178645  0.21376402    -0.06500
N551        N  0.18763769  0.72825973  0.24456295    -0.59000
Mn552      Mn  0.26061606  0.71068241  0.16739872     1.20200
Mn553      Mn  0.20375211  0.76632879  0.16779061     1.10100
Cl554      Cl  0.26002326  0.76698330  0.16701408    -0.86900
C555        C  0.19890795  0.70444757  0.26320956     0.95400
C556        C  0.19779080  0.70325886  0.07383155     0.95200
C557        C  0.08674768  0.59401888  0.32848815    -0.07100
C558        C  0.10748635  0.59311923  0.02618595    -0.18200
C559        C  0.13069350  0.61344468  0.02800557     0.10100
C560        C  0.13251890  0.63639714  0.33306594    -0.07000
C561        C  0.11166523  0.63735208  0.30240660    -0.18300
C562        C  0.08926919  0.61621294  0.29940812     0.10100
S563        S  0.15786235  0.60770919  0.06595571    -0.33200
S564        S  0.06495593  0.61845325  0.25744623    -0.33200
H565        H  0.06053811  0.58788986  0.25347116     0.28100
H566        H  0.18210127  0.61427032  0.04132509     0.28100
H567        H  0.10597077  0.57588711  0.04832483     0.18700
H568        H  0.11292889  0.65460000  0.28028105     0.18700
C569        C  0.43299313  0.59304592  0.32850168    -0.07100
C570        C  0.42009549  0.60047394  0.03171036    -0.18200
C571        C  0.39855776  0.62252852  0.03462779     0.10100
C572        C  0.38920315  0.63775841  0.33324723    -0.07000
C573        C  0.40201440  0.62961131  0.29670419    -0.18300
C574        C  0.42378152  0.60777616  0.29404521     0.10100
S575        S  0.38396880  0.62912950  0.08344985    -0.33200
S576        S  0.43826539  0.59907599  0.24561992    -0.33200
H577        H  0.46687325  0.59159247  0.25779157     0.28100
H578        H  0.39550106  0.65794850  0.08494168     0.28100
H579        H  0.42701494  0.58893192  0.05816309     0.18700
H580        H  0.39530072  0.64045713  0.26968080     0.18700
C581        C  0.13307736  0.89802554  0.99859407    -0.07100
C582        C  0.11436499  0.89871200  0.29851211    -0.18200
C583        C  0.09246123  0.92023431  0.29456072     0.10100
C584        C  0.08817275  0.94123758  0.99241650    -0.07000
C585        C  0.10688727  0.94064376  0.02530500    -0.18300
C586        C  0.12948083  0.91970548  0.02849276     0.10100
S587        S  0.07056409  0.91977330  0.25017092    -0.33200
S588        S  0.15352393  0.92295517  0.07053146    -0.33200
H589        H  0.17948133  0.91795777  0.04854541     0.28100
H590        H  0.06611429  0.95043810  0.24822854     0.28100
H591        H  0.11677392  0.88243023  0.27524959     0.18700
H592        H  0.10407437  0.95696016  0.04846905     0.18700
C593        C  0.38886403  0.89626159  0.99855289    -0.07100
C594        C  0.40770519  0.89757673  0.29859550    -0.18200
C595        C  0.42958123  0.91919276  0.29491199     0.10100
C596        C  0.43377059  0.93958225  0.99284772    -0.07000
C597        C  0.41536392  0.93826100  0.02621528    -0.18300
C598        C  0.39275049  0.91719927  0.02932411     0.10100
S599        S  0.45107522  0.91975571  0.24987666    -0.33200
S600        S  0.36813102  0.91898893  0.07151317    -0.33200
H601        H  0.38294781  0.94144283  0.09216887     0.28100
H602        H  0.45567527  0.95042464  0.24905574     0.28100
H603        H  0.40505182  0.88184434  0.27474295     0.18700
H604        H  0.41851113  0.95429011  0.04956870     0.18700
C605        C  0.36541804  0.87330557  0.33275803     0.79200
N606        N  0.35440145  0.86253247  0.63150965    -0.79100
C607        C  0.33303018  0.84156522  0.63159291     0.81700
N608        N  0.32230307  0.83115494  0.66637085    -0.79000
C609        C  0.33329256  0.84150176  0.36766903     0.81800
N610        N  0.35480994  0.86236293  0.36750678    -0.80700
C611        C  0.15569937  0.87405507  0.33346975     0.79200
N612        N  0.16637474  0.86270657  0.63260951    -0.79100
C613        C  0.18632573  0.84043442  0.63329243     0.81700
N614        N  0.19565960  0.82952932  0.66839080    -0.79000
C615        C  0.18516997  0.84046191  0.36925964     0.81800
N616        N  0.16507933  0.86276886  0.36858904    -0.80700
C617        C  0.36604151  0.66155881  0.66689069     0.79200
N618        N  0.35595114  0.67264613  0.63199608    -0.79100
C619        C  0.33506382  0.69414572  0.63155437     0.81600
N620        N  0.32403481  0.70475091  0.66606531    -0.79000
C621        C  0.33413292  0.69393455  0.36759044     0.81800
N622        N  0.35492463  0.67241520  0.36774214    -0.80700
N623        N  0.01048083  0.97129627  0.65448673    -0.37600
N624        N  0.05567337  0.51729849  0.65964001    -0.58200
N625        N  0.00988301  0.56235985  0.65893725    -0.37600
N626        N  0.46471845  0.51644000  0.66008633    -0.58200
C627        C  0.03470189  0.95486510  0.66219767     0.26000
C628        C  0.48658117  0.95435764  0.66241320     0.26000
C629        C  0.03383121  0.57902626  0.66726483     0.26000
C630        C  0.48570066  0.57857682  0.66788874     0.26000
C631        C  0.07273615  0.99370078  0.65118801     0.34600
C632        C  0.07242295  0.54143700  0.65270420     0.34600
C633        C  0.44759892  0.99254204  0.65302413     0.34600
C634        C  0.44730804  0.54034799  0.65492995     0.34600
C635        C  0.02630849  0.92692678  0.34077144    -0.22900
C636        C  0.49573656  0.92662123  0.67457819    -0.22900
C637        C  0.02477556  0.60631614  0.68132923    -0.22900
C638        C  0.49439805  0.60609239  0.68156423    -0.22900
C639        C  0.10059828  0.50283935  0.63920734    -0.23900
C640        C  0.10033030  0.53311291  0.64000783    -0.23900
C641        C  0.41925495  0.50130494  0.64374435    -0.23900
C642        C  0.41899857  0.53158681  0.64503600    -0.23900
C643        C  0.06431573  0.96397681  0.65672672    -0.19300
C644        C  0.45677047  0.96289777  0.65752702    -0.19300
C645        C  0.45609870  0.56988221  0.66150239    -0.19300
C646        C  0.06353381  0.57081500  0.66022968    -0.19300
H647        H  0.04042455  0.90864811  0.34880211     0.13600
H648        H  0.48222582  0.90807604  0.34910614     0.13600
H649        H  0.03860127  0.62466205  0.68998601     0.13600
H650        H  0.48035929  0.62427332  0.69039902     0.13600
H651        H  0.11913525  0.98917560  0.63102019     0.11900
H652        H  0.11867134  0.54736308  0.63246340     0.11900
H653        H  0.40045051  0.98731090  0.63722474     0.11900
H654        H  0.40005869  0.54553398  0.63967492     0.11900
H655        H  0.01028802  0.99237272  0.64265662     0.25200
H656        H  0.01000643  0.54180891  0.64557765     0.25200
C657        C  0.15575472  0.65963687  0.66732462     0.79200
N658        N  0.16577669  0.67033385  0.36926923    -0.79100
C659        C  0.18663993  0.69186639  0.36982251     0.81700
N660        N  0.19747834  0.70285339  0.66838485    -0.79000
C661        C  0.18747006  0.69235126  0.63338701     0.81800
N662        N  0.16662841  0.67086323  0.63289548    -0.80700
N663        N  0.29431120  0.82270739  0.54543639    -0.07100
N664        N  0.29747915  0.84053709  0.57603111    -0.59200
N665        N  0.31487931  0.80228987  0.45399570    -0.06800
N666        N  0.33281083  0.80596181  0.42348956    -0.61400
N667        N  0.29410532  0.82258746  0.45405346    -0.06400
N668        N  0.29746409  0.84049739  0.42353529    -0.59200
N669        N  0.31509414  0.80242135  0.54525731    -0.06100
N670        N  0.33287660  0.80604621  0.57570034    -0.61700
C671        C  0.32168246  0.82995787  0.59435888     0.95100
C672        C  0.32176762  0.82993459  0.40501913     0.94900
N673        N  0.29517882  0.71210576  0.45437958    -0.07300
N674        N  0.29866348  0.69427817  0.42379236    -0.59800
N675        N  0.31603467  0.73297198  0.54536122    -0.05400
N676        N  0.33411317  0.72966346  0.57557418    -0.61100
N677        N  0.29573689  0.71220543  0.54563365    -0.07300
N678        N  0.29957290  0.69432664  0.57600092    -0.60100
N679        N  0.31545127  0.73291005  0.45402050    -0.05100
N680        N  0.33312303  0.72971357  0.42314818    -0.61100
Mn681      Mn  0.31639493  0.76766106  0.49965657     1.18400
C682        C  0.32244537  0.70549962  0.40481546     0.97200
C683        C  0.32367673  0.70535745  0.59410274     0.97800
N684        N  0.22453145  0.82199020  0.45513311    -0.07300
N685        N  0.22059521  0.84006891  0.42498538    -0.63600
N686        N  0.20483154  0.80116882  0.54690043    -0.06100
N687        N  0.18731910  0.80430993  0.57797089    -0.64300
N688        N  0.22506899  0.82199670  0.54640434    -0.06800
N689        N  0.22170891  0.83980158  0.57703419    -0.63900
N690        N  0.20425613  0.80118543  0.45528094    -0.05700
N691        N  0.18614676  0.80465679  0.42510230    -0.64600
Mn692      Mn  0.25949179  0.82333814  0.50020074     1.10700
C693        C  0.19645871  0.82914703  0.40681951     0.98400
C694        C  0.19809055  0.82850948  0.59627841     0.98500
N695        N  0.22635235  0.71153229  0.54690591    -0.06900
N696        N  0.22322617  0.69368483  0.57752023    -0.62200
N697        N  0.20497950  0.73144581  0.45574517    -0.06200
N698        N  0.18691514  0.72752744  0.42565119    -0.59000
N699        N  0.22570127  0.71109208  0.45563816    -0.07500
N700        N  0.22216157  0.69290287  0.42548746    -0.61800
N701        N  0.20556355  0.73181779  0.54708842    -0.06500
N702        N  0.18785349  0.72820192  0.57784967    -0.59000
Mn703      Mn  0.26076103  0.71071941  0.50063508     1.20200
Mn704      Mn  0.20386286  0.76640304  0.50120740     1.10100
Cl705      Cl  0.26011958  0.76702779  0.50037472    -0.86900
C706        C  0.19909555  0.70431008  0.59632846     0.95400
C707        C  0.19777915  0.70329756  0.40735434     0.95200
C708        C  0.08682582  0.59399249  0.66171376    -0.07100
C709        C  0.10733052  0.59308243  0.35930315    -0.18200
C710        C  0.13051868  0.61342323  0.36136510     0.10100
C711        C  0.13256864  0.63643605  0.66618552    -0.07000
C712        C  0.11172262  0.63731294  0.63550831    -0.18300
C713        C  0.08931769  0.61616298  0.63258710     0.10100
S714        S  0.15779461  0.60736129  0.39908607    -0.33200
S715        S  0.06490754  0.61842179  0.59071860    -0.33200
H716        H  0.06004738  0.58790576  0.58706920     0.28100
H717        H  0.18196547  0.61425393  0.37450479     0.28100
H718        H  0.10584475  0.57568605  0.38121418     0.18700
H719        H  0.11297175  0.65453696  0.61334756     0.18700
C720        C  0.43300256  0.59315245  0.66236506    -0.07100
C721        C  0.42012840  0.60042652  0.36484808    -0.18200
C722        C  0.39872286  0.62260331  0.36783369     0.10100
C723        C  0.38921604  0.63789605  0.66691979    -0.07000
C724        C  0.40159337  0.62922923  0.63032479    -0.18300
C725        C  0.42333759  0.60736701  0.62773403     0.10100
S726        S  0.38463363  0.62962790  0.41681294    -0.33200
S727        S  0.43714263  0.59799047  0.57915968    -0.33200
H728        H  0.46552194  0.58926081  0.59077928     0.28100
H729        H  0.39605257  0.65851035  0.41759102     0.28100
H730        H  0.42716029  0.58896018  0.39130516     0.18700
H731        H  0.39451235  0.63964678  0.60317096     0.18700
C732        C  0.13303796  0.89785297  0.33167921    -0.07100
C733        C  0.11399443  0.89874389  0.63206059    -0.18200
C734        C  0.09208344  0.92026625  0.62816954     0.10100
C735        C  0.08826569  0.94119204  0.32486868    -0.07000
C736        C  0.10677933  0.94059337  0.35798074    -0.18300
C737        C  0.12931993  0.91959598  0.36147406     0.10100
S738        S  0.07005866  0.91976803  0.58389333    -0.33200
S739        S  0.15316748  0.92286594  0.40370844    -0.33200
H740        H  0.17922562  0.91787356  0.38193590     0.28100
H741        H  0.06562672  0.95043556  0.58191106     0.28100
H742        H  0.11631319  0.88238802  0.60887549     0.18700
H743        H  0.10385789  0.95694860  0.38107065     0.18700
C744        C  0.38905099  0.89622232  0.33198779    -0.07100
C745        C  0.40746533  0.89764920  0.63196634    -0.18200
C746        C  0.42934684  0.91926739  0.62834766     0.10100
C747        C  0.43382213  0.93963669  0.32578684    -0.07000
C748        C  0.41560519  0.93830109  0.35934375    -0.18300
C749        C  0.39300081  0.91724670  0.36264712     0.10100
S750        S  0.45086101  0.91990235  0.58332753    -0.33200
S751        S  0.36876573  0.91891934  0.40522693    -0.33200
H752        H  0.37873303  0.94613161  0.42010216     0.28100
H753        H  0.45551852  0.95056441  0.58262480     0.28100
H754        H  0.40481056  0.88195567  0.60806794     0.18700
H755        H  0.41899085  0.95419230  0.38281083     0.18700
C756        C  0.36522276  0.87328271  0.66613273     0.79200
N757        N  0.35436711  0.86262627  0.96466039    -0.79100
C758        C  0.33297460  0.84167285  0.96477545     0.81700
N759        N  0.32231095  0.83121269  0.99956532    -0.79000
C760        C  0.33303674  0.84153437  0.70103691     0.81800
N761        N  0.35457752  0.86236806  0.70087678    -0.80700
C762        C  0.15549281  0.87423799  0.66685587     0.79200
N763        N  0.16649897  0.86264079  0.96605844    -0.79100
C764        C  0.18635423  0.84028711  0.96672882     0.81700
N765        N  0.19566436  0.82932528  0.00179412    -0.79000
C766        C  0.18496081  0.84075359  0.70278548     0.81800
N767        N  0.16482183  0.86300013  0.70201493    -0.80700
C768        C  0.36599735  0.66144645  0.00011556     0.79200
N769        N  0.35575220  0.67246663  0.96525580    -0.79100
C770        C  0.33487829  0.69399016  0.96489912     0.81600
N771        N  0.32400711  0.70465606  0.99947208    -0.79000
C772        C  0.33385788  0.69391605  0.70092553     0.81800
N773        N  0.35469217  0.67244061  0.70120120    -0.80700
N774        N  0.01066438  0.97129638  0.98857824    -0.37600
N775        N  0.05572146  0.51717520  0.99342481    -0.58200
N776        N  0.00997288  0.56230773  0.99236754    -0.37600
N777        N  0.46477308  0.51646732  0.99324139    -0.58200
C778        C  0.03487520  0.95485647  0.99631882     0.26000
C779        C  0.48675875  0.95432666  0.99634770     0.26000
C780        C  0.03390512  0.57891585  0.00095727     0.26000
C781        C  0.48579094  0.57853127  0.00122878     0.26000
C782        C  0.07297562  0.99369148  0.98551353     0.34600
C783        C  0.07255876  0.54129741  0.98678057     0.34600
C784        C  0.44777241  0.99249155  0.98669944     0.34600
C785        C  0.44737270  0.54038450  0.98810202     0.34600
C786        C  0.02610642  0.92695714  0.67449115    -0.22900
C787        C  0.49590033  0.92657790  0.00848031    -0.22900
C788        C  0.02483693  0.60617908  0.01510322    -0.22900
C789        C  0.49446447  0.60596880  0.01519725    -0.22900
C790        C  0.10083147  0.50267682  0.97379102    -0.23900
C791        C  0.10058514  0.53294377  0.97459646    -0.23900
C792        C  0.41922315  0.50135486  0.97730170    -0.23900
C793        C  0.41901487  0.53164107  0.97843854    -0.23900
C794        C  0.06450141  0.96396185  0.99092507    -0.19300
C795        C  0.45695491  0.96284590  0.99127493    -0.19300
C796        C  0.45620455  0.56991306  0.99458234    -0.19300
C797        C  0.06361735  0.57069372  0.99407302    -0.19300
H798        H  0.04023479  0.90867266  0.68246075     0.13600
H799        H  0.48197619  0.90804422  0.68267701     0.13600
H800        H  0.03865984  0.62447129  0.02396926     0.13600
H801        H  0.48040383  0.62411787  0.02409247     0.13600
H802        H  0.11955202  0.98914639  0.96607877     0.11900
H803        H  0.11901730  0.54716593  0.96736741     0.11900
H804        H  0.40067388  0.98720975  0.97066728     0.11900
H805        H  0.40007201  0.54560581  0.97316872     0.11900
H806        H  0.01049033  0.99238140  0.97680138     0.25200
H807        H  0.01012810  0.54178985  0.97889647     0.25200
C808        C  0.15587965  0.65947146  0.00055982     0.79200
N809        N  0.16571769  0.67052228  0.70235688    -0.79100
C810        C  0.18663207  0.69201054  0.70288748     0.81700
N811        N  0.19739620  0.70288922  0.00177672    -0.79000
C812        C  0.18733936  0.69249293  0.96673860     0.81800
N813        N  0.16661511  0.67089035  0.96616969    -0.80700
N814        N  0.29415092  0.82274758  0.87874578    -0.07100
N815        N  0.29738193  0.84063402  0.90926726    -0.59200
N816        N  0.31463285  0.80231495  0.78734192    -0.06800
N817        N  0.33255054  0.80598583  0.75682457    -0.61400
N818        N  0.29387003  0.82262686  0.78741391    -0.06400
N819        N  0.29721973  0.84054126  0.75690162    -0.59200
N820        N  0.31490257  0.80243189  0.87858672    -0.06100
N821        N  0.33272701  0.80608974  0.90897521    -0.61700
C822        C  0.32159471  0.83005712  0.92757025     0.95100
C823        C  0.32151056  0.82996783  0.73837311     0.94900
N824        N  0.29492529  0.71212677  0.78771261    -0.07300
N825        N  0.29836651  0.69431344  0.75710277    -0.59800
N826        N  0.31579163  0.73294076  0.87875405    -0.05400
N827        N  0.33387257  0.72958830  0.90896373    -0.61100
N828        N  0.29548220  0.71218373  0.87900360    -0.07300
N829        N  0.29931809  0.69427001  0.90934653    -0.60100
N830        N  0.31520353  0.73292149  0.78734584    -0.05100
N831        N  0.33284337  0.72973258  0.75643955    -0.61100
Mn832      Mn  0.31616765  0.76766230  0.83300864     1.18400
C833        C  0.32212847  0.70553907  0.73809267     0.97200
C834        C  0.32343347  0.70526804  0.92747222     0.97800
N835        N  0.22429400  0.82217560  0.78860748    -0.07300
N836        N  0.22031899  0.84034253  0.75856699    -0.63600
N837        N  0.20470448  0.80117007  0.88025120    -0.06100
N838        N  0.18725417  0.80424119  0.91138542    -0.64300
N839        N  0.22496030  0.82197940  0.87978829    -0.06800
N840        N  0.22167889  0.83970980  0.91049549    -0.63900
N841        N  0.20401166  0.80138060  0.78870763    -0.05700
N842        N  0.18585416  0.80494756  0.75860462    -0.64600
Mn843      Mn  0.25930892  0.82339638  0.83357803     1.10700
C844        C  0.19615303  0.82947938  0.74041127     0.98400
C845        C  0.19808964  0.82838319  0.92974504     0.98500
N846        N  0.22611344  0.71162030  0.88016577    -0.06900
N847        N  0.22304417  0.69383589  0.91084931    -0.62200
N848        N  0.20481342  0.73160462  0.78890247    -0.06200
N849        N  0.18683419  0.72773300  0.75869766    -0.59000
N850        N  0.22552263  0.71123615  0.78885200    -0.07500
N851        N  0.22206360  0.69309111  0.75863919    -0.61800
N852        N  0.20532531  0.73190214  0.88033675    -0.06500
N853        N  0.18767216  0.72835215  0.91117496    -0.59000
Mn854      Mn  0.26051954  0.71077720  0.83393749     1.20200
Mn855      Mn  0.20365557  0.76650236  0.83448473     1.10100
Cl856      Cl  0.25990716  0.76708466  0.83369423    -0.86900
C857        C  0.19895745  0.70450147  0.92970638     0.95400
C858        C  0.19774086  0.70351437  0.74040351     0.95200
C859        C  0.08687462  0.59389654  0.99540491    -0.07100
C860        C  0.10745891  0.59308838  0.69247812    -0.18200
C861        C  0.13060107  0.61349245  0.69452368     0.10100
C862        C  0.13276050  0.63620037  0.99940721    -0.07000
C863        C  0.11194501  0.63694025  0.96867633    -0.18300
C864        C  0.08942803  0.61588188  0.96603229     0.10100
S865        S  0.15783464  0.60761910  0.73235683    -0.33200
S866        S  0.06486055  0.61809897  0.92431614    -0.33200
H867        H  0.05983689  0.58759543  0.92089224     0.28100
H868        H  0.18203191  0.61450922  0.70781785     0.28100
H869        H  0.10600267  0.57571813  0.71442866     0.18700
H870        H  0.11323734  0.65403831  0.94634582     0.18700
C871        C  0.43313073  0.59320805  0.99542585    -0.07100
C872        C  0.42059245  0.60107206  0.69879542    -0.18200
C873        C  0.39920634  0.62327816  0.70168368     0.10100
C874        C  0.38918204  0.63779394  0.00006217    -0.07000
C875        C  0.40219309  0.62980542  0.96358801    -0.18300
C876        C  0.42397916  0.60797812  0.96094150     0.10100
S877        S  0.38585008  0.63110900  0.75081458    -0.33200
S878        S  0.43839080  0.59934934  0.91241927    -0.33200
H879        H  0.46631483  0.58949299  0.92434545     0.28100
H880        H  0.39677237  0.66018603  0.75017288     0.28100
H881        H  0.42797911  0.59001629  0.72539026     0.18700
H882        H  0.39555450  0.64072037  0.93658032     0.18700
C883        C  0.13282587  0.89801316  0.66506244    -0.07100
C884        C  0.11423549  0.89888867  0.96560615    -0.18200
C885        C  0.09220693  0.92032521  0.96199510     0.10100
C886        C  0.08801984  0.94129502  0.65842348    -0.07000
C887        C  0.10668507  0.94081113  0.69137023    -0.18300
C888        C  0.12926287  0.91986262  0.69475430     0.10100
S889        S  0.06987219  0.91971363  0.91798523    -0.33200
S890        S  0.15338587  0.92337573  0.73667215    -0.33200
H891        H  0.17929976  0.91816947  0.71468330     0.28100
H892        H  0.06481575  0.95029051  0.91633524     0.28100
H893        H  0.11654993  0.88262606  0.94230195     0.18700
H894        H  0.10387120  0.95723870  0.71439294     0.18700
C895        C  0.38882338  0.89623289  0.66537128    -0.07100
C896        C  0.40765688  0.89762985  0.96529491    -0.18200
C897        C  0.42963651  0.91918429  0.96187617     0.10100
C898        C  0.43358202  0.93966166  0.65927974    -0.07000
C899        C  0.41535376  0.93829215  0.69281965    -0.18300
C900        C  0.39278113  0.91719733  0.69610493     0.10100
S901        S  0.45138086  0.91974384  0.91704492    -0.33200
S902        S  0.36849538  0.91879702  0.73865750    -0.33200
H903        H  0.38053984  0.94424460  0.75610555     0.28100
H904        H  0.45631902  0.95036200  0.91647320     0.28100
H905        H  0.40505900  0.88193637  0.94138406     0.18700
H906        H  0.41869430  0.95421941  0.71624935     0.18700
C907        C  0.86521007  0.37338353  0.99946762     0.79200
N908        N  0.85441673  0.36268197  0.29837876    -0.79100
C909        C  0.83306914  0.34169067  0.29844784     0.81700
N910        N  0.82241846  0.33119734  0.33322265    -0.79000
C911        C  0.83303782  0.34163625  0.03437061     0.81800
N912        N  0.85460019  0.36244383  0.03421171    -0.80700
C913        C  0.65566303  0.37414525  0.00054186     0.79200
N914        N  0.66657730  0.36264892  0.29926789    -0.79100
C915        C  0.68644619  0.34031879  0.29990504     0.81700
N916        N  0.69574255  0.32930084  0.33494684    -0.79000
C917        C  0.68519627  0.34063144  0.03630846     0.81800
N918        N  0.66506127  0.36287863  0.03564544    -0.80700
C919        C  0.86672910  0.16212616  0.33365623     0.79200
N920        N  0.85653270  0.17318447  0.29879732    -0.79100
C921        C  0.83530236  0.19434812  0.29841688     0.81600
N922        N  0.82407181  0.20467907  0.33296474    -0.79000
C923        C  0.83423835  0.19410265  0.03430307     0.81800
N924        N  0.85499806  0.17254610  0.03442745    -0.80700
N925        N  0.51072310  0.47126743  0.32127062    -0.37600
N926        N  0.55581387  0.01722195  0.32579657    -0.58200
N927        N  0.51000270  0.06233068  0.32520918    -0.37600
N928        N  0.96484646  0.01647131  0.32626555    -0.58200
C929        C  0.53496336  0.45483190  0.32890213     0.26000
C930        C  0.98683343  0.45429278  0.32907936     0.26000
C931        C  0.53396208  0.07897799  0.33354089     0.26000
C932        C  0.98586625  0.07858995  0.33408390     0.26000
C933        C  0.57301006  0.49370564  0.31803942     0.34600
C934        C  0.57257719  0.04137553  0.31904401     0.34600
C935        C  0.94777299  0.49244678  0.31968829     0.34600
C936        C  0.94736639  0.04037733  0.32149757     0.34600
C937        C  0.52607992  0.42702626  0.00877099    -0.22900
C938        C  0.99601093  0.42653009  0.34110797    -0.22900
C939        C  0.52493717  0.10629027  0.34754901    -0.22900
C940        C  0.99461268  0.10611536  0.34768091    -0.22900
C941        C  0.60082645  0.00281346  0.30564423    -0.23900
C942        C  0.60053797  0.03308180  0.30652302    -0.23900
C943        C  0.91917520  0.00132114  0.31104363    -0.23900
C944        C  0.91892629  0.03160296  0.31230978    -0.23900
C945        C  0.56458815  0.46396892  0.32352241    -0.19300
C946        C  0.95700370  0.46281947  0.32425363    -0.19300
C947        C  0.95623565  0.06992035  0.32784845    -0.19300
C948        C  0.56366152  0.07074076  0.32658308    -0.19300
H949        H  0.54016110  0.40878602  0.01706208     0.13600
H950        H  0.98191607  0.40821863  0.01690958     0.13600
H951        H  0.53877765  0.12462465  0.35620511     0.13600
H952        H  0.98062845  0.12434753  0.35646942     0.13600
H953        H  0.61958068  0.48922070  0.29856793     0.11900
H954        H  0.61890363  0.04734865  0.29914673     0.11900
H955        H  0.90057329  0.48710794  0.30420038     0.11900
H956        H  0.89990237  0.04553644  0.30742985     0.11900
H957        H  0.51050239  0.49237045  0.30955936     0.25200
H958        H  0.51012010  0.04176284  0.31191219     0.25200
C959        C  0.65590114  0.15949498  0.33397868     0.79200
N960        N  0.66593470  0.17035959  0.03589926    -0.79100
C961        C  0.68679790  0.19189445  0.03645959     0.81700
N962        N  0.69741617  0.20290777  0.33541754    -0.79000
C963        C  0.68749470  0.19249845  0.30031691     0.81800
N964        N  0.66675685  0.17090913  0.29964654    -0.80700
N965        N  0.79436781  0.32280997  0.21226419    -0.07100
N966        N  0.79751878  0.34064320  0.24286243    -0.59200
N967        N  0.81489199  0.30242987  0.12078650    -0.06800
N968        N  0.83273730  0.30610553  0.09019241    -0.61400
N969        N  0.79408129  0.32268680  0.12088070    -0.06400
N970        N  0.79730909  0.34056189  0.09030932    -0.59200
N971        N  0.81516570  0.30254167  0.21208644    -0.06100
N972        N  0.83293937  0.30617819  0.24253838    -0.61700
C973        C  0.82172778  0.33008225  0.26119974     0.95100
C974        C  0.82158223  0.33002601  0.07171489     0.94900
N975        N  0.79531663  0.21222114  0.12118207    -0.07300
N976        N  0.79880183  0.19442255  0.09056176    -0.59800
N977        N  0.81616597  0.23309605  0.21217526    -0.05400
N978        N  0.83427014  0.22981067  0.24236715    -0.61100
N979        N  0.79585573  0.21233854  0.21251520    -0.07300
N980        N  0.79970409  0.19450253  0.24293340    -0.60100
N981        N  0.81557195  0.23304504  0.12081550    -0.05100
N982        N  0.83322942  0.22988465  0.08991428    -0.61100
Mn983      Mn  0.81648613  0.26779003  0.16646056     1.18400
C984        C  0.82256374  0.20567204  0.07155976     0.97200
C985        C  0.82383307  0.20554264  0.26098146     0.97800
N986        N  0.72458356  0.32205534  0.12202815    -0.07300
N987        N  0.72058648  0.34022411  0.09200373    -0.63600
N988        N  0.70492305  0.30115232  0.21357195    -0.06100
N989        N  0.68739422  0.30427618  0.24460829    -0.64300
N990        N  0.72516095  0.32197669  0.21311748    -0.06800
N991        N  0.72179197  0.33977438  0.24373062    -0.63900
N992        N  0.70433562  0.30122537  0.12211248    -0.05700
N993        N  0.68617676  0.30476890  0.09201348    -0.64600
Mn994      Mn  0.75954518  0.32339198  0.16702477     1.10700
C995        C  0.69644390  0.32932156  0.07384920     0.98400
C996        C  0.69816849  0.32846426  0.26291246     0.98500
N997        N  0.72643269  0.21161453  0.21378238    -0.06900
N998        N  0.72333800  0.19385611  0.24450332    -0.62200
N999        N  0.70508159  0.23146490  0.12246300    -0.06200
N1000       N  0.68705201  0.22756180  0.09232094    -0.59000
N1001       N  0.72581046  0.21111803  0.12238318    -0.07500
N1002       N  0.72230626  0.19294918  0.09219306    -0.61800
N1003       N  0.70562564  0.23188016  0.21389690    -0.06500
N1004       N  0.68794344  0.22834576  0.24471331    -0.59000
Mn1005     Mn  0.76087175  0.21079367  0.16746667     1.20200
Mn1006     Mn  0.70394820  0.26641505  0.16794684     1.10100
Cl1007     Cl  0.76020590  0.26708973  0.16716996    -0.86900
C1008       C  0.69922239  0.20452457  0.26331951     0.95400
C1009       C  0.69793834  0.20334571  0.07400972     0.95200
C1010       C  0.58694952  0.09390353  0.32814533    -0.07100
C1011       C  0.60743228  0.09321616  0.02643389    -0.18200
C1012       C  0.63065290  0.11353025  0.02829223     0.10100
C1013       C  0.63276889  0.13624373  0.33266197    -0.07000
C1014       C  0.61200025  0.13710931  0.30188577    -0.18300
C1015       C  0.58956570  0.11599417  0.29893768     0.10100
S1016       S  0.65782694  0.10772766  0.06621727    -0.33200
S1017       S  0.56526481  0.11817482  0.25695092    -0.33200
H1018       H  0.56061588  0.08762779  0.25323269     0.28100
H1019       H  0.68206757  0.11436497  0.04162987     0.28100
H1020       H  0.60592766  0.07594375  0.04851735     0.18700
H1021       H  0.61332162  0.15430048  0.27968735     0.18700
C1022       C  0.93320540  0.09325875  0.32882056    -0.07100
C1023       C  0.91967630  0.10009690  0.03149785    -0.18200
C1024       C  0.89809441  0.12211001  0.03437817     0.10100
C1025       C  0.88998880  0.13854103  0.33360099    -0.07000
C1026       C  0.90147373  0.12907703  0.29683680    -0.18300
C1027       C  0.92295684  0.10696617  0.29413544     0.10100
S1028       S  0.88292225  0.12821697  0.08299236    -0.33200
S1029       S  0.93573198  0.09661671  0.24542832    -0.33200
H1030       H  0.96448592  0.08861939  0.25637836     0.28100
H1031       H  0.89489978  0.15681280  0.08552715     0.28100
H1032       H  0.92634580  0.08833660  0.05789397     0.18700
H1033       H  0.89384367  0.13900248  0.26962346     0.18700
C1034       C  0.63296099  0.39788831  0.99887228    -0.07100
C1035       C  0.61428702  0.39875644  0.29871280    -0.18200
C1036       C  0.59235000  0.42026180  0.29488520     0.10100
C1037       C  0.58804916  0.44109611  0.99250012    -0.07000
C1038       C  0.60679331  0.44060389  0.02537257    -0.18300
C1039       C  0.62939719  0.41967072  0.02864762     0.10100
S1040       S  0.57018861  0.41965942  0.25072421    -0.33200
S1041       S  0.65351870  0.42307733  0.07058463    -0.33200
H1042       H  0.67943972  0.41803178  0.04854206     0.28100
H1043       H  0.56543145  0.45027898  0.24885169     0.28100
H1044       H  0.61659965  0.38242434  0.27549561     0.18700
H1045       H  0.60401607  0.45701099  0.04842829     0.18700
C1046       C  0.88884105  0.39628265  0.99874092    -0.07100
C1047       C  0.90754514  0.39766552  0.29879107    -0.18200
C1048       C  0.92950887  0.41919664  0.29516307     0.10100
C1049       C  0.93363544  0.43968035  0.99271672    -0.07000
C1050       C  0.91511528  0.43856659  0.02599483    -0.18300
C1051       C  0.89249160  0.41752043  0.02919149     0.10100
S1052       S  0.95102970  0.41970703  0.25014046    -0.33200
S1053       S  0.86773032  0.41952366  0.07121126    -0.33200
H1054       H  0.87882959  0.44581014  0.08753352     0.28100
H1055       H  0.95602328  0.45031376  0.24949607     0.28100
H1056       H  0.90481349  0.38199877  0.27487748     0.18700
H1057       H  0.91825463  0.45465806  0.04927537     0.18700
C1058       C  0.86529006  0.37337514  0.33300654     0.79200
N1059       N  0.85432072  0.36266029  0.63150756    -0.79100
C1060       C  0.83295565  0.34168400  0.63160386     0.81700
N1061       N  0.82226796  0.33124805  0.66639159    -0.79000
C1062       C  0.83319326  0.34152421  0.36789571     0.81800
N1063       N  0.85470863  0.36238862  0.36774760    -0.80700
C1064       C  0.65570680  0.37413020  0.33353053     0.79200
N1065       N  0.66632738  0.36266373  0.63282400    -0.79100
C1066       C  0.68628217  0.34039635  0.63344604     0.81700
N1067       N  0.69562263  0.32944099  0.66850912    -0.79000
C1068       C  0.68506828  0.34047714  0.36936924     0.81800
N1069       N  0.66499242  0.36279077  0.36866187    -0.80700
C1070       C  0.86582787  0.16130752  0.66687957     0.79200
N1071       N  0.85568519  0.17242455  0.63203218    -0.79100
C1072       C  0.83491681  0.19403899  0.63168987     0.81600
N1073       N  0.82404551  0.20470950  0.66625321    -0.79000
C1074       C  0.83401364  0.19388917  0.36779267     0.81800
N1075       N  0.85514583  0.17270710  0.36799741    -0.80700
N1076       N  0.51055388  0.47129540  0.65460242    -0.37600
N1077       N  0.55557344  0.01727367  0.65959700    -0.58200
N1078       N  0.50980882  0.06235326  0.65884351    -0.37600
N1079       N  0.96466077  0.01644139  0.65994610    -0.58200
C1080       C  0.53476676  0.45489008  0.66245854     0.26000
C1081       C  0.98667185  0.45435660  0.66250584     0.26000
C1082       C  0.53373194  0.07894809  0.66751447     0.26000
C1083       C  0.98562577  0.07851193  0.66790798     0.26000
C1084       C  0.57280748  0.49369244  0.65131973     0.34600
C1085       C  0.57234520  0.04142804  0.65285911     0.34600
C1086       C  0.94770012  0.49252685  0.65302838     0.34600
C1087       C  0.94726544  0.04034367  0.65468717     0.34600
C1088       C  0.52638181  0.42688765  0.34105802    -0.22900
C1089       C  0.99582179  0.42665879  0.67482890    -0.22900
C1090       C  0.52465513  0.10613181  0.68192538    -0.22900
C1091       C  0.99428038  0.10592214  0.68199595    -0.22900
C1092       C  0.60055358  0.00286913  0.63931973    -0.23900
C1093       C  0.60028806  0.03313814  0.64027327    -0.23900
C1094       C  0.91918216  0.00130074  0.64368107    -0.23900
C1095       C  0.91895307  0.03158632  0.64481106    -0.23900
C1096       C  0.56438295  0.46398870  0.65700112    -0.19300
C1097       C  0.95686886  0.46287505  0.65749598    -0.19300
C1098       C  0.95605679  0.06986753  0.66125339    -0.19300
C1099       C  0.56343499  0.07078280  0.66047659    -0.19300
H1100       H  0.54051900  0.40859009  0.34894586     0.13600
H1101       H  0.98226533  0.40792028  0.34911263     0.13600
H1102       H  0.53847035  0.12439739  0.69090940     0.13600
H1103       H  0.98020669  0.12402503  0.69102475     0.13600
H1104       H  0.61917082  0.48910362  0.63103638     0.11900
H1105       H  0.61865338  0.04740591  0.63289957     0.11900
H1106       H  0.90058084  0.48730155  0.63708612     0.11900
H1107       H  0.90002765  0.04554181  0.63939196     0.11900
H1108       H  0.51036868  0.49233838  0.64267429     0.25200
H1109       H  0.50995423  0.04190352  0.64517189     0.25200
C1110       C  0.65565346  0.15958613  0.66755888     0.79200
N1111       N  0.66579226  0.17027469  0.36910497    -0.79100
C1112       C  0.68659911  0.19186094  0.36982995     0.81700
N1113       N  0.69733409  0.20284471  0.66860348    -0.79000
C1114       C  0.68729842  0.19236577  0.63360650     0.81800
N1115       N  0.66648248  0.17085095  0.63312431    -0.80700
N1116       N  0.79417807  0.32271161  0.54552873    -0.07100
N1117       N  0.79738520  0.34060156  0.57605427    -0.59200
N1118       N  0.81472760  0.30222970  0.45413172    -0.06800
N1119       N  0.83269157  0.30593581  0.42366585    -0.61400
N1120       N  0.79395312  0.32252728  0.45418080    -0.06400
N1121       N  0.79733984  0.34046776  0.42370453    -0.59200
N1122       N  0.81495170  0.30241634  0.54538210    -0.06100
N1123       N  0.83276591  0.30609515  0.57578171    -0.61700
C1124       C  0.82160397  0.33005116  0.59437712     0.95100
C1125       C  0.82166518  0.32993072  0.40522253     0.94900
N1126       N  0.79498485  0.21203683  0.45455662    -0.07300
N1127       N  0.79846106  0.19422017  0.42394921    -0.59800
N1128       N  0.81583764  0.23294071  0.54556842    -0.05400
N1129       N  0.83391904  0.22962132  0.57577752    -0.61100
N1130       N  0.79554196  0.21217059  0.54582755    -0.07300
N1131       N  0.79938684  0.19427618  0.57617737    -0.60100
N1132       N  0.81527731  0.23282262  0.45422995    -0.05100
N1133       N  0.83296318  0.22961375  0.42337906    -0.61100
Mn1134     Mn  0.81622678  0.26760976  0.49982818     1.18400
C1135       C  0.82226541  0.20542822  0.40500341     0.97200
C1136       C  0.82348633  0.20530596  0.59428989     0.97800
N1137       N  0.72438216  0.32196136  0.45525276    -0.07300
N1138       N  0.72045731  0.34005062  0.42511603    -0.63600
N1139       N  0.70469329  0.30116486  0.54701237    -0.06100
N1140       N  0.68720861  0.30430495  0.57810770    -0.64300
N1141       N  0.72493942  0.32198453  0.54650181    -0.06800
N1142       N  0.72161288  0.33978387  0.57714157    -0.63900
N1143       N  0.70408907  0.30117343  0.45539954    -0.05700
N1144       N  0.68597499  0.30467234  0.42522862    -0.64600
Mn1145     Mn  0.75934742  0.32330463  0.50030801     1.10700
C1146       C  0.69630910  0.32915833  0.40695223     0.98400
C1147       C  0.69800427  0.32849584  0.59640643     0.98500
N1148       N  0.72615777  0.21152228  0.54708725    -0.06900
N1149       N  0.72303804  0.19369178  0.57772059    -0.62200
N1150       N  0.70479187  0.23140444  0.45587175    -0.06200
N1151       N  0.68676385  0.22749402  0.42573005    -0.59000
N1152       N  0.72550558  0.21104162  0.45580421    -0.07500
N1153       N  0.72199316  0.19285612  0.42564281    -0.61800
N1154       N  0.70537336  0.23181242  0.54725987    -0.06500
N1155       N  0.68767382  0.22821579  0.57804068    -0.59000
Mn1156     Mn  0.76056449  0.21067977  0.50081471     1.20200
Mn1157     Mn  0.70368735  0.26638640  0.50133594     1.10100
Cl1158     Cl  0.75994911  0.26699223  0.50051895    -0.86900
C1159       C  0.69891730  0.20432917  0.59653765     0.95400
C1160       C  0.69763374  0.20325220  0.40745577     0.95200
C1161       C  0.58668934  0.09398408  0.66201092    -0.07100
C1162       C  0.60750391  0.09300168  0.35899361    -0.18200
C1163       C  0.63071120  0.11332313  0.36102653     0.10100
C1164       C  0.63246021  0.13639119  0.66643780    -0.07000
C1165       C  0.61162291  0.13725938  0.63574931    -0.18300
C1166       C  0.58919955  0.11612972  0.63285555     0.10100
S1167       S  0.65794972  0.10731349  0.39881092    -0.33200
S1168       S  0.56478901  0.11838141  0.59098533    -0.33200
H1169       H  0.55995473  0.08786266  0.58731648     0.28100
H1170       H  0.68214526  0.11419838  0.37426509     0.28100
H1171       H  0.60596882  0.07565878  0.38097465     0.18700
H1172       H  0.61288988  0.15446214  0.61356090     0.18700
C1173       C  0.93296603  0.09312269  0.66213698    -0.07100
C1174       C  0.92173432  0.10202255  0.36544651    -0.18200
C1175       C  0.90074062  0.12458451  0.36844950     0.10100
C1176       C  0.88897578  0.13763370  0.66679728    -0.07000
C1177       C  0.90197788  0.12965957  0.63030753    -0.18300
C1178       C  0.92383960  0.10791643  0.62767205     0.10100
S1179       S  0.88916238  0.13394365  0.41790512    -0.33200
S1180       S  0.93848298  0.09946439  0.57922401    -0.33200
H1181       H  0.96663304  0.09041401  0.59135875     0.28100
H1182       H  0.89919151  0.16324198  0.41458018     0.28100
H1183       H  0.92969074  0.09146440  0.39210601     0.18700
H1184       H  0.89533557  0.14057424  0.60330143     0.18700
C1185       C  0.63308674  0.39795017  0.33174859    -0.07100
C1186       C  0.61407967  0.39881446  0.63224293    -0.18200
C1187       C  0.59221403  0.42037743  0.62835710     0.10100
C1188       C  0.58830024  0.44127400  0.32517356    -0.07000
C1189       C  0.60696729  0.44073448  0.35812693    -0.18300
C1190       C  0.62951098  0.41974154  0.36150022     0.10100
S1191       S  0.57033943  0.42007230  0.58394615    -0.33200
S1192       S  0.65353645  0.42305737  0.40354651    -0.33200
H1193       H  0.67949758  0.41788778  0.38163976     0.28100
H1194       H  0.56601592  0.45075985  0.58208831     0.28100
H1195       H  0.61646214  0.38255196  0.60895147     0.18700
H1196       H  0.60415255  0.45712435  0.38119617     0.18700
C1197       C  0.88894218  0.39627583  0.33223627    -0.07100
C1198       C  0.90754665  0.39758992  0.63203191    -0.18200
C1199       C  0.92949424  0.41914649  0.62841815     0.10100
C1200       C  0.93383122  0.43956963  0.32609932    -0.07000
C1201       C  0.91565493  0.43821500  0.35969603    -0.18300
C1202       C  0.89304076  0.41716432  0.36302843     0.10100
S1203       S  0.95115492  0.41957464  0.58351982    -0.33200
S1204       S  0.86886484  0.41873919  0.40569633    -0.33200
H1205       H  0.88175480  0.44342150  0.42400210     0.28100
H1206       H  0.95590434  0.45021963  0.58267401     0.28100
H1207       H  0.90492144  0.38183128  0.60820394     0.18700
H1208       H  0.91905274  0.45414016  0.38311259     0.18700
C1209       C  0.86516758  0.37339634  0.66612655     0.79200
N1210       N  0.85434650  0.36268619  0.96483648    -0.79100
C1211       C  0.83293798  0.34175158  0.96491888     0.81700
N1212       N  0.82223822  0.33131888  0.99970413    -0.79000
C1213       C  0.83302137  0.34161419  0.70105567     0.81800
N1214       N  0.85455196  0.36246314  0.70088145    -0.80700
C1215       C  0.65543498  0.37413397  0.66710032     0.79200
N1216       N  0.66647618  0.36264044  0.96624597    -0.79100
C1217       C  0.68641918  0.34036263  0.96684283     0.81700
N1218       N  0.69582368  0.32942806  0.00187734    -0.79000
C1219       C  0.68491196  0.34060521  0.70292838     0.81800
N1220       N  0.66475968  0.36283703  0.70222203    -0.80700
C1221       C  0.86595225  0.16141193  0.00002210     0.79200
N1222       N  0.85565057  0.17241921  0.96519420    -0.79100
C1223       C  0.83490169  0.19406166  0.96490488     0.81600
N1224       N  0.82419392  0.20484707  0.99950198    -0.79000
C1225       C  0.83391955  0.19384324  0.70107061     0.81800
N1226       N  0.85466526  0.17227824  0.70125239    -0.80700
N1227       N  0.51057595  0.47125631  0.98815437    -0.37600
N1228       N  0.55574085  0.01728228  0.99358432    -0.58200
N1229       N  0.50993652  0.06235267  0.99241041    -0.37600
N1230       N  0.96479255  0.01642880  0.99355707    -0.58200
C1231       C  0.53475246  0.45483779  0.99620493     0.26000
C1232       C  0.98663965  0.45438590  0.99611251     0.26000
C1233       C  0.53383831  0.07895498  0.00118608     0.26000
C1234       C  0.98572305  0.07849470  0.00136149     0.26000
C1235       C  0.57291440  0.49356147  0.98532542     0.34600
C1236       C  0.57254769  0.04142900  0.98694610     0.34600
C1237       C  0.94769185  0.49257074  0.98642760     0.34600
C1238       C  0.94740182  0.04031416  0.98809054     0.34600
C1239       C  0.52616167  0.42700879  0.67484425    -0.22900
C1240       C  0.99572462  0.42672262  0.00866081    -0.22900
C1241       C  0.52471893  0.10612037  0.01560528    -0.22900
C1242       C  0.99433943  0.10586585  0.01561448    -0.22900
C1243       C  0.60088209  0.00284852  0.97400570    -0.23900
C1244       C  0.60059210  0.03311453  0.97479702    -0.23900
C1245       C  0.91937074  0.00122492  0.97712946    -0.23900
C1246       C  0.91912515  0.03151708  0.97811069    -0.23900
C1247       C  0.56440587  0.46385771  0.99082364    -0.19300
C1248       C  0.95684372  0.46291810  0.99098194    -0.19300
C1249       C  0.95616397  0.06986330  0.99455883    -0.19300
C1250       C  0.56356598  0.07081048  0.99425716    -0.19300
H1251       H  0.54028488  0.40874837  0.68292797     0.13600
H1252       H  0.98205768  0.40809534  0.68297116     0.13600
H1253       H  0.53851154  0.12437918  0.02467521     0.13600
H1254       H  0.98023536  0.12393175  0.02469159     0.13600
H1255       H  0.61946013  0.48894678  0.96579643     0.11900
H1256       H  0.61900834  0.04736172  0.96758436     0.11900
H1257       H  0.90049616  0.48737592  0.97083885     0.11900
H1258       H  0.90021501  0.04545358  0.97251440     0.11900
H1259       H  0.51044785  0.49226044  0.97608240     0.25200
H1260       H  0.51012166  0.04191679  0.97871070     0.25200
C1261       C  0.65590257  0.15954623  0.00086175     0.79200
N1262       N  0.66564364  0.17045123  0.70258645    -0.79100
C1263       C  0.68653805  0.19195738  0.70311025     0.81700
N1264       N  0.69749887  0.20289309  0.00195941    -0.79000
C1265       C  0.68742166  0.19246740  0.96694804     0.81800
N1266       N  0.66665558  0.17090286  0.96644098    -0.80700
N1267       N  0.79417312  0.32280170  0.87881683    -0.07100
N1268       N  0.79737374  0.34068177  0.90935500    -0.59200
N1269       N  0.81465654  0.30234877  0.78736949    -0.06800
N1270       N  0.83257129  0.30604095  0.75684809    -0.61400
N1271       N  0.79387864  0.32264443  0.78745085    -0.06400
N1272       N  0.79721477  0.34056811  0.75694354    -0.59200
N1273       N  0.81494090  0.30250279  0.87866070    -0.06100
N1274       N  0.83274944  0.30617222  0.90907120    -0.61700
C1275       C  0.82158758  0.33012556  0.92768034     0.95100
C1276       C  0.82151417  0.33002256  0.73840415     0.94900
N1277       N  0.79496168  0.21212448  0.78781215    -0.07300
N1278       N  0.79845205  0.19425888  0.75726698    -0.59800
N1279       N  0.81578885  0.23300318  0.87880896    -0.05400
N1280       N  0.83385633  0.22967553  0.90903033    -0.61100
N1281       N  0.79549950  0.21222567  0.87905082    -0.07300
N1282       N  0.79933883  0.19431647  0.90939078    -0.60100
N1283       N  0.81523602  0.23292624  0.78742909    -0.05100
N1284       N  0.83291544  0.22968890  0.75656909    -0.61100
Mn1285     Mn  0.81619188  0.26770504  0.83306549     1.18400
C1286       C  0.82223965  0.20545237  0.73827926     0.97200
C1287       C  0.82342885  0.20534926  0.92752653     0.97800
N1288       N  0.72430185  0.32209450  0.78870129    -0.07300
N1289       N  0.72031869  0.34022329  0.75862656    -0.63600
N1290       N  0.70473225  0.30117969  0.88038483    -0.06100
N1291       N  0.68727754  0.30429368  0.91150946    -0.64300
N1292       N  0.72498342  0.32199413  0.87987555    -0.06800
N1293       N  0.72169735  0.33976357  0.91054329    -0.63900
N1294       N  0.70401754  0.30130075  0.78885665    -0.05700
N1295       N  0.68584924  0.30482925  0.75876092    -0.64600
Mn1296     Mn  0.75932301  0.32339290  0.83364665     1.10700
C1297       C  0.69614889  0.32933468  0.74051325     0.98400
C1298       C  0.69810409  0.32846527  0.92981487     0.98500
N1299       N  0.72614832  0.21158667  0.88031070    -0.06900
N1300       N  0.72308782  0.19379075  0.91098799    -0.62200
N1301       N  0.70479287  0.23154828  0.78909446    -0.06200
N1302       N  0.68677396  0.22765902  0.75893686    -0.59000
N1303       N  0.72551623  0.21119490  0.78899613    -0.07500
N1304       N  0.72202585  0.19303971  0.75879996    -0.61800
N1305       N  0.70536871  0.23187700  0.88052154    -0.06500
N1306       N  0.68773085  0.22832114  0.91137465    -0.59000
Mn1307     Mn  0.76054238  0.21077065  0.83403573     1.20200
Mn1308     Mn  0.70367326  0.26646669  0.83465956     1.10100
Cl1309     Cl  0.75992804  0.26708258  0.83379036    -0.86900
C1310       C  0.69901284  0.20445677  0.92987912     0.95400
C1311       C  0.69766943  0.20344415  0.74062293     0.95200
C1312       C  0.58679884  0.09404775  0.99567690    -0.07100
C1313       C  0.60729298  0.09310121  0.69280504    -0.18200
C1314       C  0.63045146  0.11348476  0.69482936     0.10100
C1315       C  0.63272316  0.13632615  0.99974993    -0.07000
C1316       C  0.61187084  0.13713882  0.96906754    -0.18300
C1317       C  0.58933809  0.11609740  0.96638510     0.10100
S1318       S  0.65765705  0.10761335  0.73269648    -0.33200
S1319       S  0.56476416  0.11839925  0.92468750    -0.33200
H1320       H  0.55978105  0.08789815  0.92113108     0.28100
H1321       H  0.68187283  0.11442616  0.70815230     0.28100
H1322       H  0.60581380  0.07574894  0.71477860     0.18700
H1323       H  0.61316053  0.15427149  0.94678408     0.18700
C1324       C  0.93305293  0.09313185  0.99532869    -0.07100
C1325       C  0.91992054  0.10034489  0.69842562    -0.18200
C1326       C  0.89840162  0.12240903  0.70136671     0.10100
C1327       C  0.88905218  0.13767860  0.99990848    -0.07000
C1328       C  0.90236581  0.12997185  0.96351758    -0.18300
C1329       C  0.92418851  0.10816616  0.96090334     0.10100
S1330       S  0.88401221  0.12917586  0.75025330    -0.33200
S1331       S  0.93903419  0.09992701  0.91249005    -0.33200
H1332       H  0.96685853  0.08999322  0.92470275     0.28100
H1333       H  0.89548763  0.15802739  0.75145614     0.28100
H1334       H  0.92686682  0.08881095  0.72487177     0.18700
H1335       H  0.89596816  0.14112516  0.93657731     0.18700
C1336       C  0.63278410  0.39792676  0.66536719    -0.07100
C1337       C  0.61404275  0.39860643  0.96596321    -0.18200
C1338       C  0.59204189  0.42005509  0.96223222     0.10100
C1339       C  0.58806715  0.44129478  0.65872188    -0.07000
C1340       C  0.60659549  0.44065766  0.69180109    -0.18300
C1341       C  0.62912165  0.41965189  0.69520850     0.10100
S1342       S  0.56977310  0.41937491  0.91817337    -0.33200
S1343       S  0.65303178  0.42291713  0.73738332    -0.33200
H1344       H  0.67905614  0.41789804  0.71555144     0.28100
H1345       H  0.56498337  0.44998633  0.91623675     0.28100
H1346       H  0.61632926  0.38226403  0.94275471     0.18700
H1347       H  0.60370420  0.45699530  0.71492156     0.18700
C1348       C  0.88880956  0.39630611  0.66535051    -0.07100
C1349       C  0.90777659  0.39740966  0.96562784    -0.18200
C1350       C  0.92965446  0.41903430  0.96201010     0.10100
C1351       C  0.93367262  0.43963691  0.65925781    -0.07000
C1352       C  0.91535565  0.43838194  0.69272180    -0.18300
C1353       C  0.89274549  0.41732730  0.69601457     0.10100
S1354       S  0.95141931  0.41942054  0.91721114    -0.33200
S1355       S  0.86835380  0.41906990  0.73844715    -0.33200
H1356       H  0.88099163  0.44397861  0.75652002     0.28100
H1357       H  0.95579247  0.45011941  0.91609183     0.28100
H1358       H  0.90531493  0.38151543  0.94192823     0.18700
H1359       H  0.91864364  0.45438622  0.71607003     0.18700
C1360       C  0.86530232  0.87327771  0.99928677     0.79200
N1361       N  0.85455384  0.86257508  0.29812237    -0.79100
C1362       C  0.83321492  0.84157056  0.29819331     0.81700
N1363       N  0.82254135  0.83111404  0.33298087    -0.79000
C1364       C  0.83313003  0.84152060  0.03422805     0.81800
N1365       N  0.85471787  0.86230609  0.03403892    -0.80700
C1366       C  0.65567299  0.87417290  0.00031462     0.79200
N1367       N  0.66648921  0.86253832  0.29917937    -0.79100
C1368       C  0.68635334  0.84020638  0.29977259     0.81700
N1369       N  0.69574546  0.82924048  0.33479520    -0.79000
C1370       C  0.68503948  0.84058365  0.03620432     0.81800
N1371       N  0.66497291  0.86288684  0.03545493    -0.80700
C1372       C  0.86610487  0.66148104  0.33336428     0.79200
N1373       N  0.85593497  0.67259583  0.29852843    -0.79100
C1374       C  0.83511214  0.69415940  0.29820832     0.81600
N1375       N  0.82421862  0.70478661  0.33278253    -0.79000
C1376       C  0.83396919  0.69387014  0.03429998     0.81800
N1377       N  0.85484539  0.67243247  0.03448403    -0.80700
N1378       N  0.51072231  0.97126676  0.32070805    -0.37600
N1379       N  0.55573841  0.51728434  0.32606802    -0.58200
N1380       N  0.50987858  0.56234279  0.32504327    -0.37600
N1381       N  0.96480873  0.51639380  0.32637260    -0.58200
C1382       C  0.53494778  0.95483147  0.32846452     0.26000
C1383       C  0.98679619  0.95435040  0.32867469     0.26000
C1384       C  0.53378156  0.57897243  0.33369461     0.26000
C1385       C  0.98569261  0.57848235  0.33406057     0.26000
C1386       C  0.57300183  0.99363868  0.31748747     0.34600
C1387       C  0.57250656  0.54145206  0.31941694     0.34600
C1388       C  0.94773441  0.99256414  0.31966775     0.34600
C1389       C  0.94734893  0.54025480  0.32113689     0.34600
C1390       C  0.52626265  0.92691846  0.00852476    -0.22900
C1391       C  0.99594895  0.92662197  0.34087525    -0.22900
C1392       C  0.52467280  0.60616460  0.34804177    -0.22900
C1393       C  0.99432393  0.60590278  0.34812990    -0.22900
C1394       C  0.60089800  0.50290745  0.30649324    -0.23900
C1395       C  0.60055937  0.53317507  0.30725568    -0.23900
C1396       C  0.91928514  0.50113833  0.31054854    -0.23900
C1397       C  0.91900772  0.53142693  0.31153401    -0.23900
C1398       C  0.56458113  0.96392368  0.32306746    -0.19300
C1399       C  0.95696339  0.96290852  0.32394965    -0.19300
C1400       C  0.95611913  0.56980594  0.32752241    -0.19300
C1401       C  0.56350658  0.57081593  0.32680091    -0.19300
H1402       H  0.54038029  0.90861971  0.01647152     0.13600
H1403       H  0.98212892  0.90798410  0.01641346     0.13600
H1404       H  0.53846396  0.62444776  0.35702639     0.13600
H1405       H  0.98024031  0.62399161  0.35717981     0.13600
H1406       H  0.61943392  0.98910538  0.29746694     0.11900
H1407       H  0.61895444  0.54745015  0.30004387     0.11900
H1408       H  0.90038844  0.98733948  0.30489936     0.11900
H1409       H  0.90003371  0.54533773  0.30621077     0.11900
H1410       H  0.51051777  0.99232915  0.30885789     0.25200
H1411       H  0.51005701  0.54187055  0.31144214     0.25200
C1412       C  0.65572008  0.65956933  0.33419460     0.79200
N1413       N  0.66588933  0.67027928  0.03564541    -0.79100
C1414       C  0.68672981  0.69182910  0.03624667     0.81700
N1415       N  0.69732150  0.70289856  0.33532898    -0.79000
C1416       C  0.68724153  0.69251251  0.30029912     0.81800
N1417       N  0.66646365  0.67096174  0.29978446    -0.80700
N1418       N  0.79433982  0.82269262  0.21210283    -0.07100
N1419       N  0.79757877  0.84054636  0.24266887    -0.59200
N1420       N  0.81480450  0.80227082  0.12058777    -0.06800
N1421       N  0.83270895  0.80595935  0.09005183    -0.61400
N1422       N  0.79402430  0.82256065  0.12067408    -0.06400
N1423       N  0.79733782  0.84047013  0.09014552    -0.59200
N1424       N  0.81512304  0.80241079  0.21188142    -0.06100
N1425       N  0.83296943  0.80605438  0.24225917    -0.61700
C1426       C  0.82182435  0.82998331  0.26093555     0.95100
C1427       C  0.82163379  0.82992747  0.07159173     0.94900
N1428       N  0.79506080  0.71204698  0.12114191    -0.07300
N1429       N  0.79852516  0.69422193  0.09054614    -0.59800
N1430       N  0.81593906  0.73297805  0.21205877    -0.05400
N1431       N  0.83406316  0.72967020  0.24222292    -0.61100
N1432       N  0.79561066  0.71223674  0.21242160    -0.07300
N1433       N  0.79947950  0.69437707  0.24280421    -0.60100
N1434       N  0.81532435  0.73286274  0.12073236    -0.05100
N1435       N  0.83297023  0.72966889  0.08983439    -0.61100
Mn1436     Mn  0.81632158  0.76763807  0.16630174     1.18400
C1437       C  0.82228316  0.70545381  0.07152091     0.97200
C1438       C  0.82362585  0.70539603  0.26082182     0.97800
N1439       N  0.72445231  0.82196760  0.12188945    -0.07300
N1440       N  0.72042506  0.84016824  0.09190510    -0.63600
N1441       N  0.70477058  0.80106554  0.21339401    -0.06100
N1442       N  0.68722956  0.80420548  0.24441629    -0.64300
N1443       N  0.72505158  0.82185356  0.21297242    -0.06800
N1444       N  0.72169571  0.83963734  0.24360174    -0.63900
N1445       N  0.70418527  0.80115233  0.12197780    -0.05700
N1446       N  0.68598948  0.80474120  0.09192802    -0.64600
Mn1447     Mn  0.75946193  0.82327807  0.16686693     1.10700
C1448       C  0.69624726  0.82930533  0.07378607     0.98400
C1449       C  0.69804059  0.82836257  0.26275257     0.98500
N1450       N  0.72616325  0.71153063  0.21370438    -0.06900
N1451       N  0.72305116  0.69379590  0.24444721    -0.62200
N1452       N  0.70489743  0.73136722  0.12231073    -0.06200
N1453       N  0.68692773  0.72749394  0.09209910    -0.59000
N1454       N  0.72559668  0.71099151  0.12230066    -0.07500
N1455       N  0.72213475  0.69283164  0.09209306    -0.61800
N1456       N  0.70534978  0.73178803  0.21375998    -0.06500
N1457       N  0.68764059  0.72826664  0.24455700    -0.59000
Mn1458     Mn  0.76062279  0.71067582  0.16740908     1.20200
Mn1459     Mn  0.70375926  0.76632712  0.16778711     1.10100
Cl1460     Cl  0.76003051  0.76697528  0.16701615    -0.86900
C1461       C  0.69891200  0.70445992  0.26321324     0.95400
C1462       C  0.69782253  0.70326763  0.07382160     0.95200
C1463       C  0.58673109  0.59403429  0.32845922    -0.07100
C1464       C  0.60749236  0.59312384  0.02621627    -0.18200
C1465       C  0.63068976  0.61346161  0.02804172     0.10100
C1466       C  0.63252351  0.63638891  0.33301950    -0.07000
C1467       C  0.61167199  0.63734657  0.30235672    -0.18300
C1468       C  0.58926437  0.61621829  0.29936655     0.10100
S1469       S  0.65787738  0.60771974  0.06596645    -0.33200
S1470       S  0.56495100  0.61846335  0.25740395    -0.33200
H1471       H  0.56048941  0.58790435  0.25346075     0.28100
H1472       H  0.68210435  0.61429041  0.04131911     0.28100
H1473       H  0.60599295  0.57587943  0.04833961     0.18700
H1474       H  0.61294295  0.65459081  0.28022686     0.18700
C1475       C  0.93300855  0.59305483  0.32849609    -0.07100
C1476       C  0.92011777  0.60049436  0.03170581    -0.18200
C1477       C  0.89859034  0.62255838  0.03463087     0.10100
C1478       C  0.88921230  0.63776156  0.33325296    -0.07000
C1479       C  0.90202246  0.62961775  0.29670749    -0.18300
C1480       C  0.92379069  0.60778468  0.29404291     0.10100
S1481       S  0.88405475  0.62920219  0.08347196    -0.33200
S1482       S  0.93826742  0.59908393  0.24561493    -0.33200
H1483       H  0.96688965  0.59165215  0.25778388     0.28100
H1484       H  0.89555025  0.65803848  0.08487573     0.28100
H1485       H  0.92705489  0.58896706  0.05816160     0.18700
H1486       H  0.89530625  0.64046349  0.26968523     0.18700
C1487       C  0.63307851  0.89801058  0.99858700    -0.07100
C1488       C  0.61436821  0.89873725  0.29851983    -0.18200
C1489       C  0.59246866  0.92026274  0.29457385     0.10100
C1490       C  0.58817604  0.94122648  0.99241979    -0.07000
C1491       C  0.60690715  0.94064276  0.02529115    -0.18300
C1492       C  0.62949929  0.91970304  0.02847257     0.10100
S1493       S  0.57054787  0.91979005  0.25020531    -0.33200
S1494       S  0.65356434  0.92296578  0.07048677    -0.33200
H1495       H  0.67951059  0.91796258  0.04847886     0.28100
H1496       H  0.56610150  0.95045487  0.24824747     0.28100
H1497       H  0.61676249  0.88244804  0.27526406     0.18700
H1498       H  0.60410760  0.95696759  0.04844744     0.18700
C1499       C  0.88890766  0.89622549  0.99856160    -0.07100
C1500       C  0.90765861  0.89760870  0.29859089    -0.18200
C1501       C  0.92953694  0.91922172  0.29491384     0.10100
C1502       C  0.93377273  0.93958741  0.99282708    -0.07000
C1503       C  0.91536290  0.93826595  0.02619179    -0.18300
C1504       C  0.89278349  0.91717097  0.02932339     0.10100
S1505       S  0.95102780  0.91978983  0.24987691    -0.33200
S1506       S  0.86814445  0.91899518  0.07148078    -0.33200
H1507       H  0.88386563  0.94031967  0.09305673     0.28100
H1508       H  0.95561429  0.95046084  0.24905588     0.28100
H1509       H  0.90500459  0.88188167  0.27473227     0.18700
H1510       H  0.91845260  0.95433823  0.04950797     0.18700
C1511       C  0.86538341  0.87332060  0.33275213     0.79200
N1512       N  0.85438936  0.86254582  0.63150185    -0.79100
C1513       C  0.83302767  0.84156847  0.63159306     0.81700
N1514       N  0.82231224  0.83115436  0.66637615    -0.79000
C1515       C  0.83326804  0.84150213  0.36765453     0.81800
N1516       N  0.85476424  0.86238491  0.36749826    -0.80700
C1517       C  0.65570598  0.87407741  0.33345810     0.79200
N1518       N  0.66637859  0.86270250  0.63261458    -0.79100
C1519       C  0.68632479  0.84042651  0.63329653     0.81700
N1520       N  0.69565488  0.82951665  0.66839421    -0.79000
C1521       C  0.68517511  0.84047890  0.36923923     0.81800
N1522       N  0.66509498  0.86279495  0.36857457    -0.80700
C1523       C  0.86601602  0.66152747  0.66688502     0.79200
N1524       N  0.85593038  0.67262606  0.63199225    -0.79100
C1525       C  0.83506206  0.69414623  0.63155518     0.81600
N1526       N  0.82404758  0.70475924  0.66607129    -0.79000
C1527       C  0.83412907  0.69393332  0.36758784     0.81800
N1528       N  0.85492270  0.67241418  0.36774723    -0.80700
N1529       N  0.51047473  0.97129145  0.65449994    -0.37600
N1530       N  0.55566163  0.51729622  0.65967222    -0.58200
N1531       N  0.50987513  0.56236659  0.65896283    -0.37600
N1532       N  0.96472935  0.51642514  0.66007947    -0.58200
C1533       C  0.53469558  0.95485775  0.66220666     0.26000
C1534       C  0.98658884  0.95436112  0.66240043     0.26000
C1535       C  0.53382362  0.57903052  0.66729097     0.26000
C1536       C  0.98570701  0.57856551  0.66787536     0.26000
C1537       C  0.57273579  0.99369023  0.65119943     0.34600
C1538       C  0.57241738  0.54143398  0.65275994     0.34600
C1539       C  0.94761180  0.99254393  0.65300081     0.34600
C1540       C  0.94731822  0.54033226  0.65491631     0.34600
C1541       C  0.52634350  0.92694757  0.34081940    -0.22900
C1542       C  0.99574490  0.92662630  0.67456937    -0.22900
C1543       C  0.52477024  0.60632464  0.68134382    -0.22900
C1544       C  0.99440291  0.60607935  0.68155715    -0.22900
C1545       C  0.60060028  0.50283599  0.63929362    -0.23900
C1546       C  0.60033327  0.53310841  0.64009861    -0.23900
C1547       C  0.91927033  0.50128635  0.64372116    -0.23900
C1548       C  0.91901167  0.53156843  0.64501189    -0.23900
C1549       C  0.56431164  0.96396665  0.65673820    -0.19300
C1550       C  0.95677992  0.96289956  0.65750406    -0.19300
C1551       C  0.95610463  0.56986805  0.66149171    -0.19300
C1552       C  0.56352547  0.57081418  0.66026643    -0.19300
H1553       H  0.54046568  0.90867664  0.34886220     0.13600
H1554       H  0.98218457  0.90807204  0.34906998     0.13600
H1555       H  0.53859758  0.62466987  0.68999830     0.13600
H1556       H  0.98036230  0.62425635  0.69040106     0.13600
H1557       H  0.61914477  0.98916160  0.63107304     0.11900
H1558       H  0.61868026  0.54735694  0.63257529     0.11900
H1559       H  0.90048080  0.98731377  0.63711389     0.11900
H1560       H  0.90007201  0.54551412  0.63964281     0.11900
H1561       H  0.51028290  0.99236969  0.64267509     0.25200
H1562       H  0.50999875  0.54181172  0.64560957     0.25200
C1563       C  0.65576345  0.65961771  0.66729555     0.79200
N1564       N  0.66576691  0.67032497  0.36924783    -0.79100
C1565       C  0.68661995  0.69186778  0.36981630     0.81700
N1566       N  0.69745075  0.70286920  0.66838375    -0.79000
C1567       C  0.68745018  0.69237146  0.63337856     0.81800
N1568       N  0.66662731  0.67086495  0.63287319    -0.80700
N1569       N  0.79430291  0.82271771  0.54543345    -0.07100
N1570       N  0.79747236  0.84054391  0.57603212    -0.59200
N1571       N  0.81485970  0.80229636  0.45398414    -0.06800
N1572       N  0.83278257  0.80596003  0.42346776    -0.61400
N1573       N  0.79409157  0.82259987  0.45404873    -0.06400
N1574       N  0.79744642  0.84050695  0.42352701    -0.59200
N1575       N  0.81508407  0.80242970  0.54525150    -0.06100
N1576       N  0.83286595  0.80604945  0.57569665    -0.61700
C1577       C  0.82167365  0.82995977  0.59436071     0.95100
C1578       C  0.82174095  0.82993450  0.40500049     0.94900
N1579       N  0.79516314  0.71211309  0.45436957    -0.07300
N1580       N  0.79865059  0.69428285  0.42378482    -0.59800
N1581       N  0.81602443  0.73298080  0.54535924    -0.05400
N1582       N  0.83410440  0.72967151  0.57557213    -0.61100
N1583       N  0.79572600  0.71221471  0.54563277    -0.07300
N1584       N  0.79956471  0.69433520  0.57600003    -0.60100
N1585       N  0.81543494  0.73291803  0.45400949    -0.05100
N1586       N  0.83310845  0.72971956  0.42313894    -0.61100
Mn1587     Mn  0.81638073  0.76766943  0.49964829     1.18400
C1588       C  0.82243400  0.70550302  0.40480857     0.97200
C1589       C  0.82366992  0.70536446  0.59410268     0.97800
N1590       N  0.72452566  0.82200794  0.45512243    -0.07300
N1591       N  0.72059511  0.84008596  0.42497228    -0.63600
N1592       N  0.70482058  0.80118246  0.54688485    -0.06100
N1593       N  0.68731303  0.80431469  0.57796157    -0.64300
N1594       N  0.72506009  0.82200824  0.54639630    -0.06800
N1595       N  0.72170617  0.83980331  0.57703733    -0.63900
N1596       N  0.70425266  0.80120074  0.45526164    -0.05700
N1597       N  0.68615095  0.80466943  0.42507451    -0.64600
Mn1598     Mn  0.75948254  0.82335242  0.50019567     1.10700
C1599       C  0.69646485  0.82916025  0.40679567     0.98400
C1600       C  0.69809009  0.82850629  0.59628111     0.98500
N1601       N  0.72633630  0.71155204  0.54689966    -0.06900
N1602       N  0.72321008  0.69370873  0.57751792    -0.62200
N1603       N  0.70496351  0.73145770  0.45573150    -0.06200
N1604       N  0.68689595  0.72753438  0.42564147    -0.59000
N1605       N  0.72568200  0.71110047  0.45563123    -0.07500
N1606       N  0.72213569  0.69290368  0.42548968    -0.61800
N1607       N  0.70554741  0.73183760  0.54707756    -0.06500
N1608       N  0.68783802  0.72822640  0.57784116    -0.59000
Mn1609     Mn  0.76074556  0.71073085  0.50062925     1.20200
Mn1610     Mn  0.70385078  0.76641907  0.50119040     1.10100
Cl1611     Cl  0.76010674  0.76704016  0.50036513    -0.86900
C1612       C  0.69908089  0.70433711  0.59632586     0.95400
C1613       C  0.69775258  0.70329636  0.40735524     0.95200
C1614       C  0.58681757  0.59399031  0.66173215    -0.07100
C1615       C  0.60731575  0.59309282  0.35927129    -0.18200
C1616       C  0.63051715  0.61341754  0.36131927     0.10100
C1617       C  0.63258545  0.63640846  0.66614781    -0.07000
C1618       C  0.61173584  0.63728046  0.63547341    -0.18300
C1619       C  0.58931589  0.61614306  0.63258226     0.10100
S1620       S  0.65780612  0.60733288  0.39901599    -0.33200
S1621       S  0.56488769  0.61839869  0.59073159    -0.33200
H1622       H  0.56002234  0.58788236  0.58709572     0.28100
H1623       H  0.68196957  0.61423228  0.37442471     0.28100
H1624       H  0.60582478  0.57569937  0.38118593     0.18700
H1625       H  0.61298761  0.65449534  0.61330032     0.18700
C1626       C  0.93300259  0.59313548  0.66235422    -0.07100
C1627       C  0.92014439  0.60043096  0.36484516    -0.18200
C1628       C  0.89873345  0.62260312  0.36783543     0.10100
C1629       C  0.88918865  0.63785852  0.66691054    -0.07000
C1630       C  0.90157347  0.62919969  0.63031661    -0.18300
C1631       C  0.92333475  0.60735265  0.62772469     0.10100
S1632       S  0.88463341  0.62961343  0.41681223    -0.33200
S1633       S  0.93716287  0.59801118  0.57914810    -0.33200
H1634       H  0.96551166  0.58918721  0.59077059     0.28100
H1635       H  0.89604282  0.65849925  0.41760402     0.28100
H1636       H  0.92717779  0.58896203  0.39129942     0.18700
H1637       H  0.89449116  0.63961902  0.60316473     0.18700
C1638       C  0.63305281  0.89788208  0.33167472    -0.07100
C1639       C  0.61399110  0.89873068  0.63207413    -0.18200
C1640       C  0.59207284  0.92024628  0.62818824     0.10100
C1641       C  0.58829160  0.94123007  0.32487294    -0.07000
C1642       C  0.60681812  0.94063823  0.35797201    -0.18300
C1643       C  0.62935157  0.91963292  0.36146364     0.10100
S1644       S  0.57002802  0.91972251  0.58392985    -0.33200
S1645       S  0.65320481  0.92289590  0.40369358    -0.33200
H1646       H  0.67925840  0.91789397  0.38191547     0.28100
H1647       H  0.56554774  0.95038269  0.58195095     0.28100
H1648       H  0.61630571  0.88236971  0.60889465     0.18700
H1649       H  0.60390721  0.95699914  0.38105705     0.18700
C1650       C  0.88900717  0.89624714  0.33198508    -0.07100
C1651       C  0.90745207  0.89766674  0.63193866    -0.18200
C1652       C  0.92934788  0.91927158  0.62832185     0.10100
C1653       C  0.93378510  0.93965718  0.32579605    -0.07000
C1654       C  0.91556607  0.93831978  0.35935238    -0.18300
C1655       C  0.89295918  0.91726633  0.36265076     0.10100
S1656       S  0.95088079  0.91987403  0.58331493    -0.33200
S1657       S  0.86873478  0.91892545  0.40524239    -0.33200
H1658       H  0.87864485  0.94617866  0.42005251     0.28100
H1659       H  0.95563919  0.95052018  0.58263956     0.28100
H1660       H  0.90479131  0.88197305  0.60804173     0.18700
H1661       H  0.91895564  0.95420417  0.38282677     0.18700
C1662       C  0.86521293  0.87330242  0.66612044     0.79200
N1663       N  0.85439719  0.86260900  0.96466701    -0.79100
C1664       C  0.83297456  0.84168662  0.96477877     0.81700
N1665       N  0.82229382  0.83124127  0.99956771    -0.79000
C1666       C  0.83304604  0.84154133  0.70103903     0.81800
N1667       N  0.85457690  0.86238611  0.70086947    -0.80700
C1668       C  0.65549722  0.87423352  0.66686088     0.79200
N1669       N  0.66650740  0.86262433  0.96606207    -0.79100
C1670       C  0.68637663  0.84028258  0.96674491     0.81700
N1671       N  0.69569221  0.82933581  0.00181589    -0.79000
C1672       C  0.68495705  0.84074152  0.70278933     0.81800
N1673       N  0.66482288  0.86299241  0.70201954    -0.80700
C1674       C  0.86599804  0.66144918  0.00011480     0.79200
N1675       N  0.85575071  0.67247103  0.96525634    -0.79100
C1676       C  0.83486226  0.69398117  0.96490356     0.81600
N1677       N  0.82398121  0.70463313  0.99947777    -0.79000
C1678       C  0.83386220  0.69391124  0.70092983     0.81800
N1679       N  0.85467629  0.67241508  0.70119892    -0.80700
N1680       N  0.51066607  0.97128680  0.98860451    -0.37600
N1681       N  0.55571960  0.51718091  0.99341998    -0.58200
N1682       N  0.50997483  0.56230953  0.99237728    -0.37600
N1683       N  0.96477517  0.51646480  0.99325168    -0.58200
C1684       C  0.53487767  0.95484683  0.99634377     0.26000
C1685       C  0.98675696  0.95433657  0.99632056     0.26000
C1686       C  0.53390589  0.57890992  0.00100315     0.26000
C1687       C  0.98578957  0.57853757  0.00119365     0.26000
C1688       C  0.57297568  0.99368211  0.98553017     0.34600
C1689       C  0.57255784  0.54130403  0.98678480     0.34600
C1690       C  0.94777627  0.99249848  0.98663547     0.34600
C1691       C  0.94737411  0.54038028  0.98809869     0.34600
C1692       C  0.52609807  0.92694992  0.67449762    -0.22900
C1693       C  0.99589804  0.92658714  0.00845283    -0.22900
C1694       C  0.52483619  0.60615756  0.01520048    -0.22900
C1695       C  0.99446514  0.60599033  0.01510703    -0.22900
C1696       C  0.60082494  0.50268501  0.97376504    -0.23900
C1697       C  0.60058133  0.53295260  0.97458712    -0.23900
C1698       C  0.91923519  0.50134745  0.97727164    -0.23900
C1699       C  0.91902204  0.53163353  0.97841205    -0.23900
C1700       C  0.56450343  0.96395145  0.99093973    -0.19300
C1701       C  0.95695344  0.96285463  0.99124364    -0.19300
C1702       C  0.95620191  0.56991142  0.99457162    -0.19300
C1703       C  0.56361834  0.57069666  0.99410482    -0.19300
H1704       H  0.54022549  0.90866439  0.68246567     0.13600
H1705       H  0.98198498  0.90804894  0.68266773     0.13600
H1706       H  0.53865834  0.62443981  0.02410526     0.13600
H1707       H  0.98040615  0.62414949  0.02396946     0.13600
H1708       H  0.61954372  0.98913973  0.96605813     0.11900
H1709       H  0.61901346  0.54717639  0.96736383     0.11900
H1710       H  0.90069702  0.98721487  0.97051129     0.11900
H1711       H  0.90008088  0.54559624  0.97312254     0.11900
H1712       H  0.51049094  0.99236931  0.97682526     0.25200
H1713       H  0.51013022  0.54180685  0.97886526     0.25200
C1714       C  0.65586263  0.65949563  0.00059356     0.79200
N1715       N  0.66572033  0.67049749  0.70233487    -0.79100
C1716       C  0.68661621  0.69200368  0.70288070     0.81700
N1717       N  0.69741744  0.70287706  0.00176907    -0.79000
C1718       C  0.68733588  0.69248676  0.96674109     0.81800
N1719       N  0.66659159  0.67090305  0.96619267    -0.80700
N1720       N  0.79415084  0.82275521  0.87874854    -0.07100
N1721       N  0.79738143  0.84064541  0.90926696    -0.59200
N1722       N  0.81463800  0.80231899  0.78734611    -0.06800
N1723       N  0.83256035  0.80599356  0.75683355    -0.61400
N1724       N  0.79387401  0.82262985  0.78741505    -0.06400
N1725       N  0.79722820  0.84054722  0.75690614    -0.59200
N1726       N  0.81490254  0.80243979  0.87859282    -0.06100
N1727       N  0.83272822  0.80610313  0.90897908    -0.61700
C1728       C  0.82159566  0.83007206  0.92757091     0.95100
C1729       C  0.82152295  0.82997744  0.73838196     0.94900
N1730       N  0.79492464  0.71212539  0.78771707    -0.07300
N1731       N  0.79837060  0.69430984  0.75711011    -0.59800
N1732       N  0.81577971  0.73294263  0.87876483    -0.05400
N1733       N  0.83385796  0.72958758  0.90897707    -0.61100
N1734       N  0.79547046  0.71218493  0.87900861    -0.07300
N1735       N  0.79930356  0.69426925  0.90935006    -0.60100
N1736       N  0.81520341  0.73292018  0.78735280    -0.05100
N1737       N  0.83284650  0.72972915  0.75644934    -0.61100
Mn1738     Mn  0.81616558  0.76766443  0.83301627     1.18400
C1739       C  0.82213489  0.70553349  0.73810248     0.97200
C1740       C  0.82341758  0.70526544  0.92748023     0.97800
N1741       N  0.72429207  0.82216872  0.78861134    -0.07300
N1742       N  0.72031654  0.84033311  0.75856844    -0.63600
N1743       N  0.70471152  0.80116324  0.88026212    -0.06100
N1744       N  0.68727073  0.80423147  0.91140670    -0.64300
N1745       N  0.72496784  0.82197232  0.87979438    -0.06800
N1746       N  0.72169724  0.83969814  0.91050820    -0.63900
N1747       N  0.70400885  0.80137431  0.78871499    -0.05700
N1748       N  0.68585100  0.80493891  0.75861201    -0.64600
Mn1749     Mn  0.75930965  0.82339496  0.83357942     1.10700
C1750       C  0.69615030  0.82946869  0.74041481     0.98400
C1751       C  0.69811374  0.82836992  0.92976741     0.98500
N1752       N  0.72610396  0.71161105  0.88016264    -0.06900
N1753       N  0.72303362  0.69382409  0.91084345    -0.62200
N1754       N  0.70480172  0.73159630  0.78890196    -0.06200
N1755       N  0.68681800  0.72772173  0.75870158    -0.59000
N1756       N  0.72551157  0.71122811  0.78884840    -0.07500
N1757       N  0.72204707  0.69308010  0.75863890    -0.61800
N1758       N  0.70531619  0.73189293  0.88033576    -0.06500
N1759       N  0.68766111  0.72833978  0.91117126    -0.59000
Mn1760     Mn  0.76051242  0.71077381  0.83393659     1.20200
Mn1761     Mn  0.70365138  0.76649632  0.83448932     1.10100
Cl1762     Cl  0.75990409  0.76708229  0.83369587    -0.86900
C1763       C  0.69894482  0.70448670  0.92969889     0.95400
C1764       C  0.69772093  0.70350089  0.74040687     0.95200
C1765       C  0.58687115  0.59390523  0.99544596    -0.07100
C1766       C  0.60745756  0.59308800  0.69248669    -0.18200
C1767       C  0.63061392  0.61347578  0.69450071     0.10100
C1768       C  0.63273539  0.63623276  0.99946246    -0.07000
C1769       C  0.61190500  0.63698233  0.96875173    -0.18300
C1770       C  0.58940258  0.61591004  0.96609641     0.10100
S1771       S  0.65786212  0.60759162  0.73231102    -0.33200
S1772       S  0.56483533  0.61812412  0.92438083    -0.33200
H1773       H  0.55985408  0.58761560  0.92092245     0.28100
H1774       H  0.68205011  0.61447388  0.70775133     0.28100
H1775       H  0.60599878  0.57572679  0.71444985     0.18700
H1776       H  0.61318227  0.65409184  0.94643552     0.18700
C1777       C  0.93312548  0.59320416  0.99541199    -0.07100
C1778       C  0.92058178  0.60104386  0.69878321    -0.18200
C1779       C  0.89918512  0.62324134  0.70167265     0.10100
C1780       C  0.88919187  0.63780535  0.00006144    -0.07000
C1781       C  0.90218126  0.62979916  0.96358112    -0.18300
C1782       C  0.92395809  0.60796312  0.96092543     0.10100
S1783       S  0.88583130  0.63107008  0.75080495    -0.33200
S1784       S  0.93832965  0.59931600  0.91238551    -0.33200
H1785       H  0.96619643  0.58926846  0.92426171     0.28100
H1786       H  0.89675970  0.66014493  0.75016657     0.28100
H1787       H  0.92797015  0.58998795  0.72537719     0.18700
H1788       H  0.89552724  0.64070262  0.93657217     0.18700
C1789       C  0.63283086  0.89800858  0.66506721    -0.07100
C1790       C  0.61422253  0.89886358  0.96561328    -0.18200
C1791       C  0.59219486  0.92030318  0.96200681     0.10100
C1792       C  0.58801513  0.94128230  0.65843580    -0.07000
C1793       C  0.60669098  0.94080741  0.69137318    -0.18300
C1794       C  0.62927245  0.91986200  0.69475396     0.10100
S1795       S  0.56984387  0.91968646  0.91801219    -0.33200
S1796       S  0.65340406  0.92338081  0.73666248    -0.33200
H1797       H  0.67931356  0.91816227  0.71466951     0.28100
H1798       H  0.56480545  0.95026613  0.91634767     0.28100
H1799       H  0.61652662  0.88259231  0.94231797     0.18700
H1800       H  0.60388195  0.95723913  0.71439155     0.18700
C1801       C  0.88881356  0.89625398  0.66534820    -0.07100
C1802       C  0.90770931  0.89758749  0.96531268    -0.18200
C1803       C  0.92966512  0.91916528  0.96187778     0.10100
C1804       C  0.93358905  0.93966635  0.65925298    -0.07000
C1805       C  0.91536116  0.93830314  0.69279335    -0.18300
C1806       C  0.89278427  0.91721395  0.69608397     0.10100
S1807       S  0.95139393  0.91974953  0.91703526    -0.33200
S1808       S  0.86851817  0.91880855  0.73865639    -0.33200
H1809       H  0.88053304  0.94428793  0.75605871     0.28100
H1810       H  0.95622462  0.95038524  0.91641560     0.28100
H1811       H  0.90512512  0.88188242  0.94141260     0.18700
H1812       H  0.91871009  0.95422712  0.71622496     0.18700
loop_ 
_geom_bond_atom_site_label_1 
_geom_bond_atom_site_label_2 
_geom_bond_distance 
_geom_bond_site_symmetry_2 
_ccdc_geom_bond_type 
C1            N6   1.361   1_556  A
C1          N304   1.362       .  A
C1          C140   1.492       .  S
N2            C3   1.357       .  A
N2          C152   1.362       .  A
C3            N4   1.355       .  A
C3           C67   1.461       .  S
N4          C156   1.356       .  A
C5            N6   1.358       .  A
C5          N306   1.356   1_554  A
C5           C68   1.461       .  S
C7           N12   1.363       .  A
C7          N310   1.360   1_554  A
C7          C128   1.490   1_554  S
N8            C9   1.355       .  A
N8          C158   1.360       .  A
C9           N10   1.355       .  A
C9           C90   1.459       .  S
N10         C162   1.356       .  A
C11          N12   1.360       .  A
C11         N312   1.356       .  A
C11          C89   1.463       .  S
C13          N14   1.364       .  A
C13         N169   1.359       .  A
C13         C119   1.501       .  S
N14          C15   1.359       .  A
C15          N16   1.355       .  A
C15          C79   1.462       .  S
N16         C168   1.355       .  A
C17          N18   1.356       .  A
C17         N318   1.355   1_554  A
C17          C78   1.461       .  S
N18         C315   1.360       .  A
N19          C23   1.353       .  A
N19         C930   1.353   1_455  A
N19          H51   1.035       .  S
N20          C28   1.351       .  A
N20         C480   1.351   1_545  A
N21          C25   1.353       .  A
N21         C932   1.352   1_455  A
N21          H52   1.035       .  S
N22          C30   1.352       .  A
N22         C482   1.352   1_545  A
C23          C39   1.416       .  A
C23         C182   1.387       .  A
C24         N925   1.353       .  A
C24          C40   1.417       .  A
C24          C32   1.387       .  A
C25          C33   1.386       .  A
C25          C42   1.416       .  A
C26         N927   1.352       .  A
C26          C41   1.416       .  A
C26          C34   1.388       .  A
C27         N473   1.351       .  A
C27          C39   1.413       .  A
C27         C488   1.386       .  A
C28          C42   1.414       .  A
C28          C36   1.386       .  A
C29         N475   1.352       .  A
C29          C40   1.415       .  A
C29         C490   1.387       .  A
C30          C38   1.386       .  A
C30          C41   1.414       .  A
C31         C325   1.387   1_554  A
C31        C1240   1.376   1_455  A
C31          H43   1.082       .  S
C32        C1088   1.376       .  A
C32         H195   1.082       .  S
C33         C940   1.376   1_455  A
C33          H45   1.082       .  S
C34         C939   1.376       .  A
C34          H46   1.082       .  S
C35          C36   1.372       .  A
C35         C480   1.385   1_545  A
C35         H500   1.082   1_545  S
C36          H48   1.082       .  S
C37          C38   1.373       .  A
C37         C482   1.387   1_545  A
C37         H502   1.082   1_545  S
C38          H50   1.082       .  S
C39         C282   1.489       .  S
C40         C294   1.489       .  S
C41         C116   1.486       .  S
C42         C104   1.490       .  S
H44         C334   1.082       .  S
H47         C488   1.082       .  S
H49         C490   1.082       .  S
C53          N58   1.361       .  A
C53         N205   1.362       .  A
C53         C107   1.487       .  S
N54          C55   1.359       .  A
N54         C355   1.362       .  A
C55         N358   1.356       .  A
C55         C103   1.464       .  S
N56          C57   1.356       .  A
N56         C206   1.357       .  A
C57          N58   1.357       .  A
C57         C102   1.462       .  S
N59          N60   1.321       .  A
N59          N65   1.316       .  A
N59         Mn88   2.204       .  S
N60          C67   1.351       .  A
N61          N63   1.316       .  A
N61          N62   1.321       .  A
N61         Mn77   2.204       .  S
N62          C68   1.351       .  A
N63          N64   1.321       .  A
N63         Mn88   2.205       .  S
N64          C68   1.352       .  A
N65          N66   1.321       .  A
N65         Mn77   2.205       .  S
N66          C67   1.351       .  A
N69          N75   1.317       .  A
N69          N70   1.321       .  A
N69         Mn99   2.206       .  S
N70          C78   1.351       .  A
N71          N72   1.322       .  A
N71          N73   1.316       .  A
N71         Mn77   2.206       .  S
N72          C79   1.352       .  A
N73          N74   1.321       .  A
N73         Mn99   2.205       .  S
N74          C79   1.351       .  A
N75          N76   1.321       .  A
N75         Mn77   2.205       .  S
N76          C78   1.351       .  A
Mn77       Cl101   2.551       .  S
N80          N81   1.321       .  A
N80          N86   1.317       .  A
N80         Mn88   2.204       .  S
N81          C89   1.351       .  A
N82          N84   1.316       .  A
N82          N83   1.321       .  A
N82        Mn100   2.204       .  S
N83          C90   1.351       .  A
N84          N85   1.320       .  A
N84         Mn88   2.200       .  S
N85          C90   1.350       .  A
N86          N87   1.322       .  A
N86        Mn100   2.212       .  S
N87          C89   1.353       .  A
Mn88       Cl101   2.552       .  S
N91          N92   1.321       .  A
N91          N97   1.316       .  A
N91         Mn99   2.206       .  S
N92         C102   1.351       .  A
N93          N94   1.322       .  A
N93          N95   1.317       .  A
N93        Mn100   2.208       .  S
N94         C103   1.352       .  A
N95          N96   1.321       .  A
N95         Mn99   2.208       .  S
N96         C103   1.352       .  A
N97          N98   1.321       .  A
N97        Mn100   2.207       .  S
N98         C102   1.351       .  A
Mn99       Cl101   2.551       .  S
Mn100      Cl101   2.550       .  S
C104        C109   1.411       .  A
C104        C256   1.403       .  A
C105        C106   1.400       .  A
C105        C406   1.403   1_554  A
C105        H114   1.084       .  S
C106        C409   1.417   1_554  A
C106        S110   1.802       .  S
C107        C108   1.407       .  A
C107        C257   1.417       .  A
C108        C109   1.400       .  A
C108        H115   1.084       .  S
C109        S111   1.804       .  S
S110        H113   1.407       .  S
S111        H112   1.406       .  S
C116        C121   1.408       .  A
C116        C268   1.398       .  A
C117        C118   1.400       .  A
C117        C418   1.398   1_554  A
C117        H126   1.084       .  S
C118        C421   1.425   1_554  A
C118        S122   1.800       .  S
C119        C120   1.412       .  A
C119        C269   1.426       .  A
C120        C121   1.400       .  A
C120        H127   1.083       .  S
C121        S123   1.805       .  S
S122        H125   1.408       .  S
S123        H124   1.404       .  S
C128        C133   1.418   1_556  A
C128        C431   1.409       .  A
C129        C130   1.399       .  A
C129        C279   1.409       .  A
C129        H138   1.083       .  S
C130        C282   1.410       .  A
C130        S134   1.804       .  S
C131        C341   1.489       .  S
C131        C132   1.403   1_556  A
C131        C432   1.410       .  A
C132        C133   1.401       .  A
C132        H139   1.084       .  S
C133        S135   1.802       .  S
S134        H137   1.406       .  S
S135        H136   1.407       .  S
C140        C145   1.419   1_556  A
C140        C443   1.409       .  A
C141        C142   1.399       .  A
C141        C291   1.409       .  A
C141        H150   1.083       .  S
C142        C294   1.409       .  A
C142        S146   1.804       .  S
C143        C342   1.490       .  S
C143        C144   1.402   1_556  A
C143        C444   1.410       .  A
C144        C145   1.404       .  A
C144        H151   1.083       .  S
C145        S147   1.809       .  S
S146        H149   1.406       .  S
S147        H148   1.407       .  S
C152        N157   1.361       .  A
C152        C291   1.492       .  S
N153        C303   1.362       .  A
N153        C154   1.357       .  A
C154        N155   1.355       .  A
C154        C218   1.461       .  S
N155        C307   1.356       .  A
C156        N157   1.358       .  A
C156        C219   1.462       .  S
C158        N163   1.363       .  A
C158        C279   1.490       .  S
N159        C309   1.361       .  A
N159        C160   1.355       .  A
C160        N161   1.355       .  A
C160        C241   1.461       .  S
N161        C313   1.357       .  A
C162        N163   1.361       .  A
C162        C240   1.465       .  S
C164        N165   1.364       .  A
C164        N320   1.359       .  A
C164        C270   1.501       .  S
N165        C166   1.359       .  A
C166        N167   1.355       .  A
C166        C230   1.462       .  S
N167        C319   1.355       .  A
C168        N169   1.356       .  A
C168        C229   1.461       .  S
N170       C1081   1.353   1_455  A
N170        C174   1.353       .  A
N170        H202   1.036       .  S
N171        C631   1.351   1_545  A
N171        C179   1.352       .  A
N172       C1083   1.352   1_455  A
N172        C176   1.353       .  A
N172        H203   1.035       .  S
N173        C633   1.352   1_545  A
N173        C181   1.352       .  A
C174        C333   1.387       .  A
C174        C190   1.416       .  A
C175       N1076   1.353       .  A
C175        C191   1.416       .  A
C175        C183   1.387       .  A
C176        C184   1.386       .  A
C176        C193   1.415       .  A
C177       N1078   1.352       .  A
C177        C192   1.416       .  A
C177        C185   1.387       .  A
C178        N624   1.351       .  A
C178        C190   1.412       .  A
C178        C639   1.386       .  A
C179        C193   1.413       .  A
C179        C187   1.386       .  A
C180        N626   1.352       .  A
C180        C641   1.386       .  A
C180        C191   1.415       .  A
C181        C189   1.386       .  A
C181        C192   1.414       .  A
C182        C938   1.376   1_455  A
C182        H194   1.082       .  S
C183       C1239   1.376       .  A
C183        H346   1.082       .  S
C184       C1091   1.377   1_455  A
C184        H196   1.082       .  S
C185       C1090   1.377       .  A
C185        H197   1.082       .  S
C186        C631   1.386   1_545  A
C186        C187   1.372       .  A
C186        H651   1.082   1_545  S
C187        H199   1.082       .  S
C188        C633   1.386   1_545  A
C188        C189   1.373       .  A
C188        H653   1.082   1_545  S
C189        H201   1.082       .  S
C190        C433   1.488       .  S
C191        C445   1.489       .  S
C192        C267   1.486       .  S
C193        C255   1.490       .  S
H198        C639   1.082       .  S
H200        C641   1.082       .  S
C204        N356   1.362       .  A
C204        N209   1.361       .  A
C204        C258   1.487       .  S
N205        C206   1.359       .  A
C206        C254   1.463       .  S
N207        C357   1.356       .  A
N207        C208   1.356       .  A
C208        N209   1.357       .  A
C208        C253   1.462       .  S
N210        N211   1.321       .  A
N210        N216   1.316       .  A
N210       Mn239   2.204       .  S
N211        C218   1.351       .  A
N212        N214   1.316       .  A
N212        N213   1.321       .  A
N212       Mn228   2.204       .  S
N213        C219   1.351       .  A
N214        N215   1.321       .  A
N214       Mn239   2.207       .  S
N215        C219   1.352       .  A
N216        N217   1.321       .  A
N216       Mn228   2.205       .  S
N217        C218   1.351       .  A
N220        N226   1.317       .  A
N220        N221   1.321       .  A
N220       Mn250   2.205       .  S
N221        C229   1.351       .  A
N222        N223   1.322       .  A
N222        N224   1.316       .  A
N222       Mn228   2.205       .  S
N223        C230   1.352       .  A
N224        N225   1.321       .  A
N224       Mn250   2.205       .  S
N225        C230   1.351       .  A
N226        N227   1.321       .  A
N226       Mn228   2.205       .  S
N227        C229   1.351       .  A
Mn228      Cl252   2.551       .  S
N231        N232   1.321       .  A
N231        N237   1.317       .  A
N231       Mn239   2.205       .  S
N232        C240   1.351       .  A
N233        N235   1.316       .  A
N233        N234   1.321       .  A
N233       Mn251   2.207       .  S
N234        C241   1.352       .  A
N235        N236   1.321       .  A
N235       Mn239   2.203       .  S
N236        C241   1.351       .  A
N237        N238   1.322       .  A
N237       Mn251   2.214       .  S
N238        C240   1.353       .  A
Mn239      Cl252   2.552       .  S
N242        N243   1.321       .  A
N242        N248   1.317       .  A
N242       Mn250   2.204       .  S
N243        C253   1.351       .  A
N244        N245   1.322       .  A
N244        N246   1.317       .  A
N244       Mn251   2.208       .  S
N245        C254   1.352       .  A
N246        N247   1.321       .  A
N246       Mn250   2.206       .  S
N247        C254   1.352       .  A
N248        N249   1.321       .  A
N248       Mn251   2.208       .  S
N249        C253   1.352       .  A
Mn250      Cl252   2.552       .  S
Mn251      Cl252   2.551       .  S
C255        C407   1.403       .  A
C255        C260   1.411       .  A
C256        C257   1.400       .  A
C256        H265   1.084       .  S
C257        S261   1.802       .  S
C258        C408   1.417       .  A
C258        C259   1.407       .  A
C259        C260   1.400       .  A
C259        H266   1.084       .  S
C260        S262   1.804       .  S
S261        H264   1.407       .  S
S262        H263   1.406       .  S
C267        C419   1.398       .  A
C267        C272   1.409       .  A
C268        C269   1.400       .  A
C268        H277   1.084       .  S
C269        S273   1.801       .  S
C270        C420   1.425       .  A
C270        C271   1.412       .  A
C271        C272   1.400       .  A
C271        H278   1.083       .  S
C272        S274   1.805       .  S
S273        H276   1.408       .  S
S274        H275   1.404       .  S
C279        C284   1.418       .  A
C280        C430   1.409       .  A
C280        C281   1.399       .  A
C280        H289   1.083       .  S
C281        C433   1.409       .  A
C281        S285   1.804       .  S
C282        C283   1.403       .  A
C283        C284   1.401       .  A
C283        H290   1.084       .  S
C284        S286   1.802       .  S
S285        H288   1.406       .  S
S286        H287   1.407       .  S
C291        C296   1.420       .  A
C292        C442   1.409       .  A
C292        C293   1.399       .  A
C292        H301   1.083       .  S
C293        C445   1.410       .  A
C293        S297   1.804       .  S
C294        C295   1.402       .  A
C295        C296   1.405       .  A
C295        H302   1.083       .  S
C296        S298   1.809       .  S
S297        H300   1.406       .  S
S298        H299   1.407       .  S
C303        N308   1.361       .  A
C303        C442   1.492       .  S
N304        C305   1.357       .  A
C305        N306   1.356       .  A
C305        C369   1.461       .  S
C307        N308   1.358       .  A
C307        C370   1.462       .  S
C309        N314   1.363       .  A
C309        C430   1.490       .  S
N310        C311   1.355       .  A
C311        N312   1.355   1_556  A
C311        C392   1.460       .  S
C313        N314   1.360       .  A
C313        C391   1.464       .  S
C315        N316   1.364   1_554  A
C315        C421   1.501   1_554  S
N316        C317   1.359       .  A
C317        N318   1.355       .  A
C317        C381   1.462       .  S
C319        N320   1.356       .  A
C319        C380   1.461       .  S
N321       C1232   1.353   1_455  A
N321        C325   1.354       .  A
N321        H353   1.036       .  S
N322        C782   1.351   1_545  A
N322        C330   1.352       .  A
N323       C1234   1.352   1_456  A
N323        C327   1.353   1_556  A
N323        H354   1.035       .  S
N324        C784   1.352   1_545  A
N324        C332   1.352       .  A
C325        C341   1.416       .  A
C326       N1227   1.353       .  A
C326        C342   1.417       .  A
C326        C334   1.387   1_556  A
C327        C335   1.386       .  A
C327        C344   1.416   1_554  A
C328       N1229   1.352   1_554  A
C328        C343   1.416   1_554  A
C328        C336   1.387       .  A
C329        N775   1.351       .  A
C329        C341   1.412       .  A
C329        C790   1.386       .  A
C330        C344   1.414       .  A
C330        C338   1.386       .  A
C331        N777   1.352       .  A
C331        C792   1.386       .  A
C331        C342   1.415       .  A
C332        C340   1.386       .  A
C332        C343   1.414       .  A
C333       C1089   1.376   1_455  A
C333        H345   1.082       .  S
C334        C937   1.376       .  A
C335       C1242   1.377   1_455  A
C335        H347   1.082       .  S
C336       C1241   1.377       .  A
C336        H348   1.082       .  S
C337        C782   1.386   1_545  A
C337        C338   1.372       .  A
C337        H802   1.082   1_545  S
C338        H350   1.082       .  S
C339        C784   1.386   1_545  A
C339        C340   1.373       .  A
C339        H804   1.082   1_545  S
C340        H352   1.082       .  S
C343        C418   1.487       .  S
C344        C406   1.490       .  S
H349        C790   1.082       .  S
H351        C792   1.082       .  S
C355        N360   1.361   1_554  A
C355        C409   1.488   1_554  S
N356        C357   1.359       .  A
C357        C405   1.463       .  S
N358        C359   1.356   1_554  A
C359        N360   1.357       .  A
C359        C404   1.462       .  S
N361        N362   1.321       .  A
N361        N367   1.316       .  A
N361       Mn390   2.203       .  S
N362        C369   1.351       .  A
N363        N365   1.317       .  A
N363        N364   1.321       .  A
N363       Mn379   2.205       .  S
N364        C370   1.351       .  A
N365        N366   1.321       .  A
N365       Mn390   2.207       .  S
N366        C370   1.352       .  A
N367        N368   1.321       .  A
N367       Mn379   2.205       .  S
N368        C369   1.352       .  A
N371        N377   1.317       .  A
N371        N372   1.321       .  A
N371       Mn401   2.204       .  S
N372        C380   1.351       .  A
N373        N374   1.322       .  A
N373        N375   1.316       .  A
N373       Mn379   2.206       .  S
N374        C381   1.352       .  A
N375        N376   1.321       .  A
N375       Mn401   2.204       .  S
N376        C381   1.351       .  A
N377        N378   1.321       .  A
N377       Mn379   2.206       .  S
N378        C380   1.351       .  A
Mn379      Cl403   2.551       .  S
N382        N383   1.321       .  A
N382        N388   1.317       .  A
N382       Mn390   2.204       .  S
N383        C391   1.351       .  A
N384        N386   1.316       .  A
N384        N385   1.321       .  A
N384       Mn402   2.206       .  S
N385        C392   1.351       .  A
N386        N387   1.321       .  A
N386       Mn390   2.202       .  S
N387        C392   1.351       .  A
N388        N389   1.322       .  A
N388       Mn402   2.212       .  S
N389        C391   1.353       .  A
Mn390      Cl403   2.552       .  S
N393        N394   1.321       .  A
N393        N399   1.316       .  A
N393       Mn401   2.204       .  S
N394        C404   1.351       .  A
N395        N396   1.322       .  A
N395        N397   1.317       .  A
N395       Mn402   2.209       .  S
N396        C405   1.352       .  A
N397        N398   1.321       .  A
N397       Mn401   2.206       .  S
N398        C405   1.351       .  A
N399        N400   1.321       .  A
N399       Mn402   2.207       .  S
N400        C404   1.352       .  A
Mn401      Cl403   2.552       .  S
Mn402      Cl403   2.550       .  S
C406        C411   1.412       .  A
C407        C408   1.400       .  A
C407        H416   1.084       .  S
C408        S412   1.802       .  S
C409        C410   1.408       .  A
C410        C411   1.401       .  A
C410        H417   1.084       .  S
C411        S413   1.804       .  S
S412        H415   1.407       .  S
S413        H414   1.406       .  S
C418        C423   1.409       .  A
C419        C420   1.400       .  A
C419        H428   1.084       .  S
C420        S424   1.800       .  S
C421        C422   1.412       .  A
C422        C423   1.401       .  A
C422        H429   1.083       .  S
C423        S425   1.806       .  S
S424        H427   1.408       .  S
S425        H426   1.403       .  S
C430        C435   1.419       .  A
C431        C432   1.399       .  A
C431        H440   1.083       .  S
C432        S436   1.804       .  S
C433        C434   1.403       .  A
C434        C435   1.401       .  A
C434        H441   1.084       .  S
C435        S437   1.802       .  S
S436        H439   1.406       .  S
S437        H438   1.407       .  S
C442        C447   1.420       .  A
C443        C444   1.399       .  A
C443        H452   1.083       .  S
C444        S448   1.804       .  S
C445        C446   1.401       .  A
C446        C447   1.404       .  A
C446        H453   1.083       .  S
C447        S449   1.809       .  S
S448        H451   1.406       .  S
S449        H450   1.407       .  S
C454        N757   1.362       .  A
C454        N459   1.361   1_556  A
C454        C593   1.492       .  S
N455        C605   1.362       .  A
N455        C456   1.357       .  A
C456        N457   1.356       .  A
C456        C520   1.462       .  S
N457        C609   1.356       .  A
C458        N759   1.355   1_554  A
C458        N459   1.358       .  A
C458        C521   1.462       .  S
C460        N763   1.360   1_554  A
C460        N465   1.363       .  A
C460        C581   1.490   1_554  S
N461        C611   1.360       .  A
N461        C462   1.355       .  A
C462        N463   1.355       .  A
C462        C543   1.459       .  S
N463        C615   1.356       .  A
C464        N765   1.356       .  A
C464        N465   1.360       .  A
C464        C542   1.463       .  S
C466        N467   1.364       .  A
C466        N622   1.359       .  A
C466        C572   1.501       .  S
N467        C468   1.359       .  A
C468        N469   1.355       .  A
C468        C532   1.462       .  S
N469        C621   1.355       .  A
C470        N771   1.355   1_554  A
C470        N471   1.356       .  A
C470        C531   1.461       .  S
N471        C768   1.359       .  A
N472       C1383   1.353   1_455  A
N472        C476   1.354       .  A
N472        H504   1.035       .  S
N473        C481   1.351       .  A
N474       C1385   1.352   1_455  A
N474        C478   1.353       .  A
N474        H505   1.035       .  S
N475        C483   1.352       .  A
C476        C635   1.386       .  A
C476        C492   1.416       .  A
C477       N1378   1.353       .  A
C477        C493   1.417       .  A
C477        C485   1.387       .  A
C478        C486   1.386       .  A
C478        C495   1.416       .  A
C479       N1380   1.352       .  A
C479        C494   1.416       .  A
C479        C487   1.387       .  A
C480        C492   1.412       .  A
C481        C495   1.414       .  A
C481        C489   1.386       .  A
C482        C493   1.415       .  A
C483        C491   1.386       .  A
C483        C494   1.414       .  A
C484        C778   1.387   1_554  A
C484       C1693   1.376   1_455  A
C484        H496   1.082       .  S
C485       C1541   1.376       .  A
C485        H648   1.082       .  S
C486       C1393   1.377   1_455  A
C486        H498   1.082       .  S
C487       C1392   1.377       .  A
C487        H499   1.082       .  S
C488        C489   1.372       .  A
C489        H501   1.082       .  S
C490        C491   1.373       .  A
C491        H503   1.082       .  S
C492        C735   1.489       .  S
C493        C747   1.489       .  S
C494        C569   1.486       .  S
C495        C557   1.490       .  S
H497        C787   1.082       .  S
C506        N658   1.362       .  A
C506        N511   1.361       .  A
C506        C560   1.487       .  S
N507        C808   1.362       .  A
N507        C508   1.359       .  A
C508        N811   1.356       .  A
C508        C556   1.464       .  S
N509        C659   1.357       .  A
N509        C510   1.356       .  A
C510        N511   1.357       .  A
C510        C555   1.463       .  S
N512        N513   1.321       .  A
N512        N518   1.316       .  A
N512       Mn541   2.206       .  S
N513        C520   1.351       .  A
N514        N516   1.316       .  A
N514        N515   1.321       .  A
N514       Mn530   2.205       .  S
N515        C521   1.351       .  A
N516        N517   1.321       .  A
N516       Mn541   2.207       .  S
N517        C521   1.352       .  A
N518        N519   1.321       .  A
N518       Mn530   2.204       .  S
N519        C520   1.351       .  A
N522        N528   1.317       .  A
N522        N523   1.321       .  A
N522       Mn552   2.206       .  S
N523        C531   1.351       .  A
N524        N525   1.322       .  A
N524        N526   1.316       .  A
N524       Mn530   2.205       .  S
N525        C532   1.352       .  A
N526        N527   1.321       .  A
N526       Mn552   2.205       .  S
N527        C532   1.351       .  A
N528        N529   1.321       .  A
N528       Mn530   2.204       .  S
N529        C531   1.351       .  A
Mn530      Cl554   2.552       .  S
N533        N534   1.321       .  A
N533        N539   1.317       .  A
N533       Mn541   2.205       .  S
N534        C542   1.351       .  A
N535        N537   1.316       .  A
N535        N536   1.321       .  A
N535       Mn553   2.204       .  S
N536        C543   1.351       .  A
N537        N538   1.320       .  A
N537       Mn541   2.201       .  S
N538        C543   1.350       .  A
N539        N540   1.322       .  A
N539       Mn553   2.212       .  S
N540        C542   1.353       .  A
Mn541      Cl554   2.552       .  S
N544        N545   1.321       .  A
N544        N550   1.316       .  A
N544       Mn552   2.207       .  S
N545        C555   1.352       .  A
N546        N547   1.322       .  A
N546        N548   1.317       .  A
N546       Mn553   2.208       .  S
N547        C556   1.352       .  A
N548        N549   1.321       .  A
N548       Mn552   2.208       .  S
N549        C556   1.352       .  A
N550        N551   1.322       .  A
N550       Mn553   2.208       .  S
N551        C555   1.352       .  A
Mn552      Cl554   2.552       .  S
Mn553      Cl554   2.551       .  S
C557        C709   1.403       .  A
C557        C562   1.411       .  A
C558        C859   1.403   1_554  A
C558        C559   1.400       .  A
C558        H567   1.084       .  S
C559        C862   1.417   1_554  A
C559        S563   1.802       .  S
C560        C710   1.417       .  A
C560        C561   1.407       .  A
C561        C562   1.400       .  A
C561        H568   1.084       .  S
C562        S564   1.804       .  S
S563        H566   1.407       .  S
S564        H565   1.406       .  S
C569        C721   1.398       .  A
C569        C574   1.408       .  A
C570        C871   1.398   1_554  A
C570        C571   1.400       .  A
C570        H579   1.084       .  S
C571        C874   1.425       .  A
C571        S575   1.800       .  S
C572        C722   1.425       .  A
C572        C573   1.412       .  A
C573        C574   1.400       .  A
C573        H580   1.083       .  S
C574        S576   1.805       .  S
S575        H578   1.408       .  S
S576        H577   1.404       .  S
C581        C884   1.409       .  A
C581        C586   1.418   1_556  A
C582        C732   1.409       .  A
C582        C583   1.399       .  A
C582        H591   1.083       .  S
C583        C735   1.409       .  A
C583        S587   1.804       .  S
C584        C794   1.488       .  S
C584        C885   1.410       .  A
C584        C585   1.402   1_556  A
C585        C586   1.401       .  A
C585        H592   1.084       .  S
C586        S588   1.802       .  S
S587        H590   1.406       .  S
S588        H589   1.407       .  S
C593        C896   1.409       .  A
C593        C598   1.420   1_556  A
C594        C744   1.409       .  A
C594        C595   1.399       .  A
C594        H603   1.083       .  S
C595        C747   1.409       .  A
C595        S599   1.804       .  S
C596        C795   1.489       .  S
C596        C897   1.410       .  A
C596        C597   1.401   1_556  A
C597        C598   1.404       .  A
C597        H604   1.083       .  S
C598        S600   1.809       .  S
S599        H602   1.406       .  S
S600        H601   1.407       .  S
C605        N610   1.361       .  A
C605        C744   1.492       .  S
N606        C756   1.362       .  A
N606        C607   1.357       .  A
C607        N608   1.355       .  A
C607        C671   1.460       .  S
N608        C760   1.356       .  A
C609        N610   1.358       .  A
C609        C672   1.462       .  S
C611        N616   1.363       .  A
C611        C732   1.491       .  S
N612        C762   1.361       .  A
N612        C613   1.356       .  A
C613        N614   1.356       .  A
C613        C694   1.462       .  S
N614        C766   1.357       .  A
C615        N616   1.361       .  A
C615        C693   1.465       .  S
C617        N618   1.364       .  A
C617        N773   1.359       .  A
C617        C723   1.501       .  S
N618        C619   1.359       .  A
C619        N620   1.355       .  A
C619        C683   1.461       .  S
N620        C772   1.355       .  A
C621        N622   1.356       .  A
C621        C682   1.460       .  S
N623       C1534   1.353   1_455  A
N623        C627   1.353       .  A
N623        H655   1.036       .  S
N624        C632   1.352       .  A
N625       C1536   1.352   1_455  A
N625        C629   1.353       .  A
N625        H656   1.035       .  S
N626        C634   1.352       .  A
C627        C786   1.387       .  A
C627        C643   1.416       .  A
C628       N1529   1.353       .  A
C628        C644   1.416       .  A
C628        C636   1.387       .  A
C629        C637   1.386       .  A
C629        C646   1.416       .  A
C630       N1531   1.352       .  A
C630        C645   1.416       .  A
C630        C638   1.388       .  A
C631        C643   1.412       .  A
C632        C646   1.414       .  A
C632        C640   1.386       .  A
C633        C644   1.415       .  A
C634        C642   1.386       .  A
C634        C645   1.414       .  A
C635       C1391   1.376   1_455  A
C635        H647   1.082       .  S
C636       C1692   1.376       .  A
C636        H799   1.082       .  S
C637       C1544   1.377   1_455  A
C637        H649   1.082       .  S
C638       C1543   1.377       .  A
C638        H650   1.082       .  S
C639        C640   1.372       .  A
C640        H652   1.082       .  S
C641        C642   1.373       .  A
C642        H654   1.082       .  S
C643        C886   1.488       .  S
C644        C898   1.489       .  S
C645        C720   1.486       .  S
C646        C708   1.490       .  S
C657        N809   1.362       .  A
C657        N662   1.361       .  A
C657        C711   1.487       .  S
N658        C659   1.359       .  A
C659        C707   1.463       .  S
N660        C810   1.356       .  A
N660        C661   1.356       .  A
C661        N662   1.357       .  A
C661        C706   1.462       .  S
N663        N664   1.321       .  A
N663        N669   1.316       .  A
N663       Mn692   2.204       .  S
N664        C671   1.351       .  A
N665        N667   1.316       .  A
N665        N666   1.321       .  A
N665       Mn681   2.203       .  S
N666        C672   1.351       .  A
N667        N668   1.321       .  A
N667       Mn692   2.208       .  S
N668        C672   1.352       .  A
N669        N670   1.321       .  A
N669       Mn681   2.204       .  S
N670        C671   1.351       .  A
N673        N679   1.317       .  A
N673        N674   1.321       .  A
N673       Mn703   2.205       .  S
N674        C682   1.351       .  A
N675        N676   1.322       .  A
N675        N677   1.316       .  A
N675       Mn681   2.205       .  S
N676        C683   1.352       .  A
N677        N678   1.321       .  A
N677       Mn703   2.204       .  S
N678        C683   1.351       .  A
N679        N680   1.321       .  A
N679       Mn681   2.205       .  S
N680        C682   1.351       .  A
Mn681      Cl705   2.551       .  S
N684        N685   1.321       .  A
N684        N690   1.317       .  A
N684       Mn692   2.205       .  S
N685        C693   1.351       .  A
N686        N688   1.316       .  A
N686        N687   1.321       .  A
N686       Mn704   2.207       .  S
N687        C694   1.352       .  A
N688        N689   1.321       .  A
N688       Mn692   2.204       .  S
N689        C694   1.351       .  A
N690        N691   1.322       .  A
N690       Mn704   2.213       .  S
N691        C693   1.353       .  A
Mn692      Cl705   2.552       .  S
N695        N696   1.321       .  A
N695        N701   1.317       .  A
N695       Mn703   2.204       .  S
N696        C706   1.351       .  A
N697        N698   1.321       .  A
N697        N699   1.317       .  A
N697       Mn704   2.207       .  S
N698        C707   1.352       .  A
N699        N700   1.321       .  A
N699       Mn703   2.206       .  S
N700        C707   1.352       .  A
N701        N702   1.321       .  A
N701       Mn704   2.208       .  S
N702        C706   1.351       .  A
Mn703      Cl705   2.552       .  S
Mn704      Cl705   2.550       .  S
C708        C860   1.403       .  A
C708        C713   1.411       .  A
C709        C710   1.400       .  A
C709        H718   1.084       .  S
C710        S714   1.802       .  S
C711        C861   1.417       .  A
C711        C712   1.407       .  A
C712        C713   1.400       .  A
C712        H719   1.084       .  S
C713        S715   1.804       .  S
S714        H717   1.407       .  S
S715        H716   1.406       .  S
C720        C872   1.398       .  A
C720        C725   1.409       .  A
C721        C722   1.400       .  A
C721        H730   1.084       .  S
C722        S726   1.800       .  S
C723        C873   1.426       .  A
C723        C724   1.412       .  A
C724        C725   1.400       .  A
C724        H731   1.083       .  S
C725        S727   1.805       .  S
S726        H729   1.408       .  S
S727        H728   1.404       .  S
C732        C737   1.418       .  A
C733        C883   1.409       .  A
C733        C734   1.399       .  A
C733        H742   1.083       .  S
C734        C886   1.409       .  A
C734        S738   1.804       .  S
C735        C736   1.403       .  A
C736        C737   1.402       .  A
C736        H743   1.084       .  S
C737        S739   1.802       .  S
S738        H741   1.406       .  S
S739        H740   1.407       .  S
C744        C749   1.420       .  A
C745        C895   1.409       .  A
C745        C746   1.399       .  A
C745        H754   1.083       .  S
C746        C898   1.409       .  A
C746        S750   1.804       .  S
C747        C748   1.402       .  A
C748        C749   1.404       .  A
C748        H755   1.083       .  S
C749        S751   1.808       .  S
S750        H753   1.406       .  S
S751        H752   1.407       .  S
C756        N761   1.361       .  A
C756        C895   1.492       .  S
N757        C758   1.357       .  A
C758        N759   1.356       .  A
C758        C822   1.460       .  S
C760        N761   1.358       .  A
C760        C823   1.462       .  S
C762        N767   1.363       .  A
C762        C883   1.490       .  S
N763        C764   1.355       .  A
C764        N765   1.355   1_556  A
C764        C845   1.460       .  S
C766        N767   1.360       .  A
C766        C844   1.464       .  S
C768        N769   1.364   1_554  A
C768        C874   1.501       .  S
N769        C770   1.359       .  A
C770        N771   1.355       .  A
C770        C834   1.463       .  S
C772        N773   1.356       .  A
C772        C833   1.460       .  S
N774       C1685   1.353   1_455  A
N774        C778   1.353       .  A
N774        H806   1.035       .  S
N775        C783   1.352       .  A
N776       C1687   1.352   1_456  A
N776        C780   1.353   1_556  A
N776        H807   1.035       .  S
N777        C785   1.352       .  A
C778        C794   1.416       .  A
C779       N1680   1.353       .  A
C779        C795   1.416       .  A
C779        C787   1.387   1_556  A
C780        C788   1.386       .  A
C780        C797   1.416   1_554  A
C781       N1682   1.352   1_554  A
C781        C796   1.416   1_554  A
C781        C789   1.387       .  A
C782        C794   1.413       .  A
C783        C797   1.414       .  A
C783        C791   1.386       .  A
C784        C795   1.415       .  A
C785        C793   1.386       .  A
C785        C796   1.414       .  A
C786       C1542   1.376   1_455  A
C786        H798   1.082       .  S
C787       C1390   1.377       .  A
C788       C1695   1.377   1_455  A
C788        H800   1.082       .  S
C789       C1694   1.377       .  A
C789        H801   1.082       .  S
C790        C791   1.372       .  A
C791        H803   1.082       .  S
C792        C793   1.373       .  A
C793        H805   1.082       .  S
C796        C871   1.486       .  S
C797        C859   1.490       .  S
C808        N813   1.361   1_554  A
C808        C862   1.487   1_554  S
N809        C810   1.359       .  A
C810        C858   1.463       .  S
N811        C812   1.356   1_554  A
C812        N813   1.357       .  A
C812        C857   1.461       .  S
N814        N815   1.321       .  A
N814        N820   1.316       .  A
N814       Mn843   2.203       .  S
N815        C822   1.351       .  A
N816        N818   1.317       .  A
N816        N817   1.321       .  A
N816       Mn832   2.204       .  S
N817        C823   1.351       .  A
N818        N819   1.321       .  A
N818       Mn843   2.207       .  S
N819        C823   1.352       .  A
N820        N821   1.321       .  A
N820       Mn832   2.204       .  S
N821        C822   1.351       .  A
N824        N830   1.316       .  A
N824        N825   1.321       .  A
N824       Mn854   2.204       .  S
N825        C833   1.351       .  A
N826        N827   1.322       .  A
N826        N828   1.316       .  A
N826       Mn832   2.207       .  S
N827        C834   1.352       .  A
N828        N829   1.321       .  A
N828       Mn854   2.205       .  S
N829        C834   1.351       .  A
N830        N831   1.321       .  A
N830       Mn832   2.205       .  S
N831        C833   1.351       .  A
Mn832      Cl856   2.551       .  S
N835        N836   1.321       .  A
N835        N841   1.317       .  A
N835       Mn843   2.204       .  S
N836        C844   1.351       .  A
N837        N839   1.316       .  A
N837        N838   1.321       .  A
N837       Mn855   2.206       .  S
N838        C845   1.351       .  A
N839        N840   1.321       .  A
N839       Mn843   2.202       .  S
N840        C845   1.351       .  A
N841        N842   1.322       .  A
N841       Mn855   2.213       .  S
N842        C844   1.353       .  A
Mn843      Cl856   2.552       .  S
N846        N847   1.321       .  A
N846        N852   1.316       .  A
N846       Mn854   2.203       .  S
N847        C857   1.351       .  A
N848        N849   1.322       .  A
N848        N850   1.317       .  A
N848       Mn855   2.208       .  S
N849        C858   1.352       .  A
N850        N851   1.321       .  A
N850       Mn854   2.206       .  S
N851        C858   1.351       .  A
N852        N853   1.321       .  A
N852       Mn855   2.207       .  S
N853        C857   1.351       .  A
Mn854      Cl856   2.552       .  S
Mn855      Cl856   2.550       .  S
C859        C864   1.412       .  A
C860        C861   1.400       .  A
C860        H869   1.084       .  S
C861        S865   1.802       .  S
C862        C863   1.408       .  A
C863        C864   1.401       .  A
C863        H870   1.084       .  S
C864        S866   1.805       .  S
S865        H868   1.407       .  S
S866        H867   1.406       .  S
C871        C876   1.409       .  A
C872        C873   1.400       .  A
C872        H881   1.084       .  S
C873        S877   1.801       .  S
C874        C875   1.412   1_554  A
C875        C876   1.400       .  A
C875        H882   1.083       .  S
C876        S878   1.806       .  S
S877        H880   1.408       .  S
S878        H879   1.404       .  S
C883        C888   1.419       .  A
C884        C885   1.399       .  A
C884        H893   1.083       .  S
C885        S889   1.804       .  S
C886        C887   1.403       .  A
C887        C888   1.401       .  A
C887        H894   1.084       .  S
C888        S890   1.802       .  S
S889        H892   1.406       .  S
S890        H891   1.407       .  S
C895        C900   1.420       .  A
C896        C897   1.400       .  A
C896        H905   1.083       .  S
C897        S901   1.804       .  S
C898        C899   1.401       .  A
C899        C900   1.404       .  A
C899        H906   1.083       .  S
C900        S902   1.809       .  S
S901        H904   1.406       .  S
S902        H903   1.407       .  S
C907       N1210   1.362       .  A
C907        N912   1.361   1_556  A
C907       C1046   1.492       .  S
N908       C1058   1.362       .  A
N908        C909   1.357       .  A
C909        N910   1.355       .  A
C909        C973   1.461       .  S
N910       C1062   1.356       .  A
C911       N1212   1.356   1_554  A
C911        N912   1.358       .  A
C911        C974   1.461       .  S
C913       N1216   1.361   1_554  A
C913        N918   1.363       .  A
C913       C1034   1.490   1_554  S
N914       C1064   1.360       .  A
N914        C915   1.355       .  A
C915        N916   1.355       .  A
C915        C996   1.459       .  S
N916       C1068   1.356       .  A
C917       N1218   1.356       .  A
C917        N918   1.360       .  A
C917        C995   1.463       .  S
C919        N920   1.364       .  A
C919       N1075   1.359       .  A
C919       C1025   1.501       .  S
N920        C921   1.359       .  A
C921        N922   1.355       .  A
C921        C985   1.462       .  S
N922       C1074   1.355       .  A
C923       N1224   1.355   1_554  A
C923        N924   1.357       .  A
C923        C984   1.461       .  S
N924       C1221   1.360       .  A
N925        C929   1.353       .  A
N925        H957   1.035       .  S
N926       C1386   1.351   1_545  A
N926        C934   1.351       .  A
N927        C931   1.353       .  A
N927        H958   1.035       .  S
N928       C1388   1.352   1_545  A
N928        C936   1.352       .  A
C929       C1088   1.387       .  A
C929        C945   1.416       .  A
C930        C946   1.417       .  A
C930        C938   1.387       .  A
C931        C939   1.386       .  A
C931        C948   1.416       .  A
C932        C947   1.416       .  A
C932        C940   1.388       .  A
C933       N1379   1.351       .  A
C933        C945   1.413       .  A
C933       C1394   1.386       .  A
C934        C948   1.413       .  A
C934        C942   1.386       .  A
C935       N1381   1.352       .  A
C935       C1396   1.387       .  A
C935        C946   1.415       .  A
C936        C944   1.386       .  A
C936        C947   1.414       .  A
C937       C1231   1.387   1_554  A
C937        H949   1.082       .  S
C938       H1101   1.082       .  S
C939        H951   1.082       .  S
C940        H952   1.082       .  S
C941       C1386   1.385   1_545  A
C941        C942   1.372       .  A
C941       H1406   1.082   1_545  S
C942        H954   1.082       .  S
C943       C1388   1.387   1_545  A
C943        C944   1.373       .  A
C943       H1408   1.082   1_545  S
C944        H956   1.082       .  S
C945       C1188   1.489       .  S
C946       C1200   1.489       .  S
C947       C1022   1.486       .  S
C948       C1010   1.490       .  S
H950       C1240   1.082       .  S
H953       C1394   1.082       .  S
H955       C1396   1.082       .  S
C959       N1111   1.362       .  A
C959        N964   1.361       .  A
C959       C1013   1.487       .  S
N960       C1261   1.362       .  A
N960        C961   1.359       .  A
C961       N1264   1.356       .  A
C961       C1009   1.464       .  S
N962       C1112   1.357       .  A
N962        C963   1.356       .  A
C963        N964   1.357       .  A
C963       C1008   1.463       .  S
N965        N966   1.321       .  A
N965        N971   1.316       .  A
N965       Mn994   2.204       .  S
N966        C973   1.351       .  A
N967        N969   1.316       .  A
N967        N968   1.321       .  A
N967       Mn983   2.204       .  S
N968        C974   1.351       .  A
N969        N970   1.321       .  A
N969       Mn994   2.205       .  S
N970        C974   1.352       .  A
N971        N972   1.321       .  A
N971       Mn983   2.205       .  S
N972        C973   1.351       .  A
N975        N981   1.317       .  A
N975        N976   1.321       .  A
N975      Mn1005   2.206       .  S
N976        C984   1.352       .  A
N977        N978   1.322       .  A
N977        N979   1.316       .  A
N977       Mn983   2.205       .  S
N978        C985   1.352       .  A
N979        N980   1.321       .  A
N979      Mn1005   2.206       .  S
N980        C985   1.351       .  A
N981        N982   1.321       .  A
N981       Mn983   2.205       .  S
N982        C984   1.351       .  A
Mn983     Cl1007   2.552       .  S
N986        N987   1.321       .  A
N986        N992   1.317       .  A
N986       Mn994   2.203       .  S
N987        C995   1.351       .  A
N988        N990   1.316       .  A
N988        N989   1.321       .  A
N988      Mn1006   2.204       .  S
N989        C996   1.351       .  A
N990        N991   1.320       .  A
N990       Mn994   2.200       .  S
N991        C996   1.350       .  A
N992        N993   1.322       .  A
N992      Mn1006   2.212       .  S
N993        C995   1.353       .  A
Mn994     Cl1007   2.552       .  S
N997        N998   1.321       .  A
N997       N1003   1.317       .  A
N997      Mn1005   2.206       .  S
N998       C1008   1.352       .  A
N999       N1000   1.322       .  A
N999       N1001   1.317       .  A
N999      Mn1006   2.208       .  S
N1000      C1009   1.352       .  A
N1001      N1002   1.321       .  A
N1001     Mn1005   2.208       .  S
N1002      C1009   1.352       .  A
N1003      N1004   1.321       .  A
N1003     Mn1006   2.208       .  S
N1004      C1008   1.352       .  A
Mn1005    Cl1007   2.551       .  S
Mn1006    Cl1007   2.551       .  S
C1010      C1162   1.403       .  A
C1010      C1015   1.411       .  A
C1011      C1312   1.403   1_554  A
C1011      C1012   1.400       .  A
C1011      H1020   1.084       .  S
C1012      C1315   1.417   1_554  A
C1012      S1016   1.802       .  S
C1013      C1163   1.417       .  A
C1013      C1014   1.407       .  A
C1014      C1015   1.400       .  A
C1014      H1021   1.084       .  S
C1015      S1017   1.804       .  S
S1016      H1019   1.407       .  S
S1017      H1018   1.406       .  S
C1022      C1174   1.398       .  A
C1022      C1027   1.408       .  A
C1023      C1324   1.398   1_554  A
C1023      C1024   1.400       .  A
C1023      H1032   1.084       .  S
C1024      C1327   1.425   1_554  A
C1024      S1028   1.800       .  S
C1025      C1175   1.426       .  A
C1025      C1026   1.412       .  A
C1026      C1027   1.400       .  A
C1026      H1033   1.083       .  S
C1027      S1029   1.805       .  S
S1028      H1031   1.408       .  S
S1029      H1030   1.404       .  S
C1034      C1337   1.409       .  A
C1034      C1039   1.418   1_556  A
C1035      C1185   1.409       .  A
C1035      C1036   1.399       .  A
C1035      H1044   1.083       .  S
C1036      C1188   1.410       .  A
C1036      S1040   1.804       .  S
C1037      C1247   1.489       .  S
C1037      C1338   1.410       .  A
C1037      C1038   1.403   1_556  A
C1038      C1039   1.401       .  A
C1038      H1045   1.084       .  S
C1039      S1041   1.802       .  S
S1040      H1043   1.406       .  S
S1041      H1042   1.407       .  S
C1046      C1349   1.409       .  A
C1046      C1051   1.419   1_556  A
C1047      C1197   1.409       .  A
C1047      C1048   1.399       .  A
C1047      H1056   1.083       .  S
C1048      C1200   1.409       .  A
C1048      S1052   1.804       .  S
C1049      C1248   1.490       .  S
C1049      C1350   1.410       .  A
C1049      C1050   1.402   1_556  A
C1050      C1051   1.404       .  A
C1050      H1057   1.083       .  S
C1051      S1053   1.809       .  S
S1052      H1055   1.406       .  S
S1053      H1054   1.407       .  S
C1058      N1063   1.361       .  A
C1058      C1197   1.492       .  S
N1059      C1209   1.362       .  A
N1059      C1060   1.357       .  A
C1060      N1061   1.355       .  A
C1060      C1124   1.461       .  S
N1061      C1213   1.356       .  A
C1062      N1063   1.358       .  A
C1062      C1125   1.462       .  S
C1064      N1069   1.363       .  A
C1064      C1185   1.490       .  S
N1065      C1215   1.361       .  A
N1065      C1066   1.355       .  A
C1066      N1067   1.355       .  A
C1066      C1147   1.461       .  S
N1067      C1219   1.357       .  A
C1068      N1069   1.361       .  A
C1068      C1146   1.465       .  S
C1070      N1071   1.364       .  A
C1070      N1226   1.359       .  A
C1070      C1176   1.501       .  S
N1071      C1072   1.359       .  A
C1072      N1073   1.355       .  A
C1072      C1136   1.461       .  S
N1073      C1225   1.355       .  A
C1074      N1075   1.356       .  A
C1074      C1135   1.461       .  S
N1076      C1080   1.353       .  A
N1076      H1108   1.036       .  S
N1077      C1537   1.351   1_545  A
N1077      C1085   1.352       .  A
N1078      C1082   1.353       .  A
N1078      H1109   1.035       .  S
N1079      C1539   1.352   1_545  A
N1079      C1087   1.352       .  A
C1080      C1239   1.387       .  A
C1080      C1096   1.416       .  A
C1081      C1097   1.416       .  A
C1081      C1089   1.387       .  A
C1082      C1090   1.386       .  A
C1082      C1099   1.415       .  A
C1083      C1098   1.416       .  A
C1083      C1091   1.387       .  A
C1084      N1530   1.351       .  A
C1084      C1096   1.412       .  A
C1084      C1545   1.385       .  A
C1085      C1099   1.413       .  A
C1085      C1093   1.386       .  A
C1086      N1532   1.352       .  A
C1086      C1547   1.386       .  A
C1086      C1097   1.415       .  A
C1087      C1095   1.386       .  A
C1087      C1098   1.414       .  A
C1088      H1100   1.082       .  S
C1089      H1252   1.082       .  S
C1090      H1102   1.082       .  S
C1091      H1103   1.082       .  S
C1092      C1537   1.386   1_545  A
C1092      C1093   1.372       .  A
C1092      H1557   1.082   1_545  S
C1093      H1105   1.082       .  S
C1094      C1539   1.386   1_545  A
C1094      C1095   1.373       .  A
C1094      H1559   1.082   1_545  S
C1095      H1107   1.082       .  S
C1096      C1339   1.488       .  S
C1097      C1351   1.489       .  S
C1098      C1173   1.486       .  S
C1099      C1161   1.490       .  S
H1104      C1545   1.082       .  S
H1106      C1547   1.082       .  S
C1110      N1262   1.362       .  A
C1110      N1115   1.361       .  A
C1110      C1164   1.487       .  S
N1111      C1112   1.359       .  A
C1112      C1160   1.463       .  S
N1113      C1263   1.356       .  A
N1113      C1114   1.356       .  A
C1114      N1115   1.357       .  A
C1114      C1159   1.462       .  S
N1116      N1117   1.321       .  A
N1116      N1122   1.316       .  A
N1116     Mn1145   2.204       .  S
N1117      C1124   1.351       .  A
N1118      N1120   1.316       .  A
N1118      N1119   1.321       .  A
N1118     Mn1134   2.204       .  S
N1119      C1125   1.351       .  A
N1120      N1121   1.321       .  A
N1120     Mn1145   2.207       .  S
N1121      C1125   1.352       .  A
N1122      N1123   1.321       .  A
N1122     Mn1134   2.205       .  S
N1123      C1124   1.351       .  A
N1126      N1132   1.317       .  A
N1126      N1127   1.321       .  A
N1126     Mn1156   2.205       .  S
N1127      C1135   1.351       .  A
N1128      N1129   1.322       .  A
N1128      N1130   1.316       .  A
N1128     Mn1134   2.205       .  S
N1129      C1136   1.352       .  A
N1130      N1131   1.321       .  A
N1130     Mn1156   2.204       .  S
N1131      C1136   1.351       .  A
N1132      N1133   1.321       .  A
N1132     Mn1134   2.205       .  S
N1133      C1135   1.351       .  A
Mn1134    Cl1158   2.551       .  S
N1137      N1138   1.321       .  A
N1137      N1143   1.317       .  A
N1137     Mn1145   2.205       .  S
N1138      C1146   1.351       .  A
N1139      N1141   1.316       .  A
N1139      N1140   1.321       .  A
N1139     Mn1157   2.207       .  S
N1140      C1147   1.352       .  A
N1141      N1142   1.321       .  A
N1141     Mn1145   2.203       .  S
N1142      C1147   1.351       .  A
N1143      N1144   1.322       .  A
N1143     Mn1157   2.214       .  S
N1144      C1146   1.353       .  A
Mn1145    Cl1158   2.552       .  S
N1148      N1149   1.321       .  A
N1148      N1154   1.317       .  A
N1148     Mn1156   2.204       .  S
N1149      C1159   1.351       .  A
N1150      N1151   1.322       .  A
N1150      N1152   1.317       .  A
N1150     Mn1157   2.208       .  S
N1151      C1160   1.352       .  A
N1152      N1153   1.321       .  A
N1152     Mn1156   2.206       .  S
N1153      C1160   1.352       .  A
N1154      N1155   1.321       .  A
N1154     Mn1157   2.208       .  S
N1155      C1159   1.352       .  A
Mn1156    Cl1158   2.552       .  S
Mn1157    Cl1158   2.551       .  S
C1161      C1313   1.403       .  A
C1161      C1166   1.411       .  A
C1162      C1163   1.400       .  A
C1162      H1171   1.084       .  S
C1163      S1167   1.802       .  S
C1164      C1314   1.417       .  A
C1164      C1165   1.407       .  A
C1165      C1166   1.400       .  A
C1165      H1172   1.084       .  S
C1166      S1168   1.804       .  S
S1167      H1170   1.407       .  S
S1168      H1169   1.406       .  S
C1173      C1325   1.398       .  A
C1173      C1178   1.409       .  A
C1174      C1175   1.400       .  A
C1174      H1183   1.084       .  S
C1175      S1179   1.801       .  S
C1176      C1326   1.425       .  A
C1176      C1177   1.412       .  A
C1177      C1178   1.400       .  A
C1177      H1184   1.083       .  S
C1178      S1180   1.806       .  S
S1179      H1182   1.408       .  S
S1180      H1181   1.404       .  S
C1185      C1190   1.418       .  A
C1186      C1336   1.409       .  A
C1186      C1187   1.399       .  A
C1186      H1195   1.083       .  S
C1187      C1339   1.409       .  A
C1187      S1191   1.804       .  S
C1188      C1189   1.403       .  A
C1189      C1190   1.401       .  A
C1189      H1196   1.084       .  S
C1190      S1192   1.802       .  S
S1191      H1194   1.406       .  S
S1192      H1193   1.407       .  S
C1197      C1202   1.420       .  A
C1198      C1348   1.409       .  A
C1198      C1199   1.399       .  A
C1198      H1207   1.083       .  S
C1199      C1351   1.410       .  A
C1199      S1203   1.804       .  S
C1200      C1201   1.402       .  A
C1201      C1202   1.405       .  A
C1201      H1208   1.083       .  S
C1202      S1204   1.809       .  S
S1203      H1206   1.406       .  S
S1204      H1205   1.407       .  S
C1209      N1214   1.361       .  A
C1209      C1348   1.492       .  S
N1210      C1211   1.357       .  A
C1211      N1212   1.356       .  A
C1211      C1275   1.461       .  S
C1213      N1214   1.358       .  A
C1213      C1276   1.462       .  S
C1215      N1220   1.363       .  A
C1215      C1336   1.490       .  S
N1216      C1217   1.355       .  A
C1217      N1218   1.355   1_556  A
C1217      C1298   1.460       .  S
C1219      N1220   1.360       .  A
C1219      C1297   1.464       .  S
C1221      N1222   1.364   1_554  A
C1221      C1327   1.501   1_554  S
N1222      C1223   1.359       .  A
C1223      N1224   1.355       .  A
C1223      C1287   1.462       .  S
C1225      N1226   1.356       .  A
C1225      C1286   1.461       .  S
N1227      C1231   1.354       .  A
N1227      H1259   1.036       .  S
N1228      C1688   1.351   1_545  A
N1228      C1236   1.352       .  A
N1229      C1233   1.353   1_556  A
N1229      H1260   1.035       .  S
N1230      C1690   1.352   1_545  A
N1230      C1238   1.352       .  A
C1231      C1247   1.416       .  A
C1232      C1248   1.417       .  A
C1232      C1240   1.387   1_556  A
C1233      C1241   1.386       .  A
C1233      C1250   1.416   1_554  A
C1234      C1249   1.416   1_554  A
C1234      C1242   1.387       .  A
C1235      N1681   1.351       .  A
C1235      C1247   1.412       .  A
C1235      C1696   1.386       .  A
C1236      C1250   1.414       .  A
C1236      C1244   1.386       .  A
C1237      N1683   1.352       .  A
C1237      C1698   1.386       .  A
C1237      C1248   1.415       .  A
C1238      C1246   1.386       .  A
C1238      C1249   1.414       .  A
C1239      H1251   1.082       .  S
C1241      H1253   1.082       .  S
C1242      H1254   1.082       .  S
C1243      C1688   1.386   1_545  A
C1243      C1244   1.372       .  A
C1243      H1708   1.082   1_545  S
C1244      H1256   1.082       .  S
C1245      C1690   1.386   1_545  A
C1245      C1246   1.373       .  A
C1245      H1710   1.082   1_545  S
C1246      H1258   1.082       .  S
C1249      C1324   1.487       .  S
C1250      C1312   1.490       .  S
H1255      C1696   1.082       .  S
H1257      C1698   1.082       .  S
C1261      N1266   1.361   1_554  A
C1261      C1315   1.488   1_554  S
N1262      C1263   1.359       .  A
C1263      C1311   1.463       .  S
N1264      C1265   1.356   1_554  A
C1265      N1266   1.357       .  A
C1265      C1310   1.462       .  S
N1267      N1268   1.321       .  A
N1267      N1273   1.316       .  A
N1267     Mn1296   2.203       .  S
N1268      C1275   1.351       .  A
N1269      N1271   1.317       .  A
N1269      N1270   1.321       .  A
N1269     Mn1285   2.205       .  S
N1270      C1276   1.351       .  A
N1271      N1272   1.321       .  A
N1271     Mn1296   2.207       .  S
N1272      C1276   1.352       .  A
N1273      N1274   1.321       .  A
N1273     Mn1285   2.206       .  S
N1274      C1275   1.352       .  A
N1277      N1283   1.317       .  A
N1277      N1278   1.321       .  A
N1277     Mn1307   2.204       .  S
N1278      C1286   1.351       .  A
N1279      N1280   1.322       .  A
N1279      N1281   1.316       .  A
N1279     Mn1285   2.206       .  S
N1280      C1287   1.352       .  A
N1281      N1282   1.321       .  A
N1281     Mn1307   2.204       .  S
N1282      C1287   1.351       .  A
N1283      N1284   1.321       .  A
N1283     Mn1285   2.206       .  S
N1284      C1286   1.351       .  A
Mn1285    Cl1309   2.551       .  S
N1288      N1289   1.321       .  A
N1288      N1294   1.317       .  A
N1288     Mn1296   2.204       .  S
N1289      C1297   1.351       .  A
N1290      N1292   1.316       .  A
N1290      N1291   1.321       .  A
N1290     Mn1308   2.206       .  S
N1291      C1298   1.351       .  A
N1292      N1293   1.321       .  A
N1292     Mn1296   2.202       .  S
N1293      C1298   1.351       .  A
N1294      N1295   1.322       .  A
N1294     Mn1308   2.212       .  S
N1295      C1297   1.353       .  A
Mn1296    Cl1309   2.552       .  S
N1299      N1300   1.321       .  A
N1299      N1305   1.316       .  A
N1299     Mn1307   2.204       .  S
N1300      C1310   1.351       .  A
N1301      N1302   1.322       .  A
N1301      N1303   1.317       .  A
N1301     Mn1308   2.209       .  S
N1302      C1311   1.352       .  A
N1303      N1304   1.321       .  A
N1303     Mn1307   2.206       .  S
N1304      C1311   1.351       .  A
N1305      N1306   1.321       .  A
N1305     Mn1308   2.207       .  S
N1306      C1310   1.352       .  A
Mn1307    Cl1309   2.552       .  S
Mn1308    Cl1309   2.550       .  S
C1312      C1317   1.412       .  A
C1313      C1314   1.400       .  A
C1313      H1322   1.084       .  S
C1314      S1318   1.802       .  S
C1315      C1316   1.408       .  A
C1316      C1317   1.401       .  A
C1316      H1323   1.084       .  S
C1317      S1319   1.804       .  S
S1318      H1321   1.407       .  S
S1319      H1320   1.406       .  S
C1324      C1329   1.409       .  A
C1325      C1326   1.400       .  A
C1325      H1334   1.084       .  S
C1326      S1330   1.800       .  S
C1327      C1328   1.412       .  A
C1328      C1329   1.401       .  A
C1328      H1335   1.083       .  S
C1329      S1331   1.806       .  S
S1330      H1333   1.408       .  S
S1331      H1332   1.403       .  S
C1336      C1341   1.419       .  A
C1337      C1338   1.399       .  A
C1337      H1346   1.083       .  S
C1338      S1342   1.804       .  S
C1339      C1340   1.403       .  A
C1340      C1341   1.401       .  A
C1340      H1347   1.084       .  S
C1341      S1343   1.802       .  S
S1342      H1345   1.406       .  S
S1343      H1344   1.407       .  S
C1348      C1353   1.420       .  A
C1349      C1350   1.399       .  A
C1349      H1358   1.083       .  S
C1350      S1354   1.804       .  S
C1351      C1352   1.401       .  A
C1352      C1353   1.404       .  A
C1352      H1359   1.083       .  S
C1353      S1355   1.809       .  S
S1354      H1357   1.406       .  S
S1355      H1356   1.407       .  S
C1360      N1663   1.362       .  A
C1360      N1365   1.361   1_556  A
C1360      C1499   1.492       .  S
N1361      C1511   1.362       .  A
N1361      C1362   1.357       .  A
C1362      N1363   1.356       .  A
C1362      C1426   1.461       .  S
N1363      C1515   1.356       .  A
C1364      N1665   1.355   1_554  A
C1364      N1365   1.358       .  A
C1364      C1427   1.462       .  S
C1366      N1669   1.360   1_554  A
C1366      N1371   1.363       .  A
C1366      C1487   1.490   1_554  S
N1367      C1517   1.360       .  A
N1367      C1368   1.355       .  A
C1368      N1369   1.355       .  A
C1368      C1449   1.459       .  S
N1369      C1521   1.356       .  A
C1370      N1671   1.356       .  A
C1370      N1371   1.360       .  A
C1370      C1448   1.463       .  S
C1372      N1373   1.364       .  A
C1372      N1528   1.359       .  A
C1372      C1478   1.501       .  S
N1373      C1374   1.359       .  A
C1374      N1375   1.355       .  A
C1374      C1438   1.462       .  S
N1375      C1527   1.355       .  A
C1376      N1677   1.355   1_554  A
C1376      N1377   1.356       .  A
C1376      C1437   1.461       .  S
N1377      C1674   1.359       .  A
N1378      C1382   1.354       .  A
N1378      H1410   1.035       .  S
N1379      C1387   1.351       .  A
N1380      C1384   1.353       .  A
N1380      H1411   1.035       .  S
N1381      C1389   1.352       .  A
C1382      C1541   1.386       .  A
C1382      C1398   1.416       .  A
C1383      C1399   1.417       .  A
C1383      C1391   1.387       .  A
C1384      C1392   1.386       .  A
C1384      C1401   1.416       .  A
C1385      C1400   1.416       .  A
C1385      C1393   1.387       .  A
C1386      C1398   1.412       .  A
C1387      C1401   1.414       .  A
C1387      C1395   1.386       .  A
C1388      C1399   1.415       .  A
C1389      C1397   1.386       .  A
C1389      C1400   1.414       .  A
C1390      C1684   1.387   1_554  A
C1390      H1402   1.082       .  S
C1391      H1554   1.082       .  S
C1392      H1404   1.082       .  S
C1393      H1405   1.082       .  S
C1394      C1395   1.372       .  A
C1395      H1407   1.082       .  S
C1396      C1397   1.373       .  A
C1397      H1409   1.082       .  S
C1398      C1641   1.489       .  S
C1399      C1653   1.489       .  S
C1400      C1475   1.486       .  S
C1401      C1463   1.490       .  S
H1403      C1693   1.082       .  S
C1412      N1564   1.362       .  A
C1412      N1417   1.361       .  A
C1412      C1466   1.487       .  S
N1413      C1714   1.362       .  A
N1413      C1414   1.359       .  A
C1414      N1717   1.356       .  A
C1414      C1462   1.464       .  S
N1415      C1565   1.357       .  A
N1415      C1416   1.356       .  A
C1416      N1417   1.357       .  A
C1416      C1461   1.463       .  S
N1418      N1419   1.321       .  A
N1418      N1424   1.316       .  A
N1418     Mn1447   2.206       .  S
N1419      C1426   1.351       .  A
N1420      N1422   1.316       .  A
N1420      N1421   1.321       .  A
N1420     Mn1436   2.205       .  S
N1421      C1427   1.351       .  A
N1422      N1423   1.321       .  A
N1422     Mn1447   2.207       .  S
N1423      C1427   1.352       .  A
N1424      N1425   1.321       .  A
N1424     Mn1436   2.204       .  S
N1425      C1426   1.351       .  A
N1428      N1434   1.317       .  A
N1428      N1429   1.321       .  A
N1428     Mn1458   2.206       .  S
N1429      C1437   1.351       .  A
N1430      N1431   1.322       .  A
N1430      N1432   1.316       .  A
N1430     Mn1436   2.205       .  S
N1431      C1438   1.352       .  A
N1432      N1433   1.321       .  A
N1432     Mn1458   2.205       .  S
N1433      C1438   1.351       .  A
N1434      N1435   1.321       .  A
N1434     Mn1436   2.204       .  S
N1435      C1437   1.351       .  A
Mn1436    Cl1460   2.552       .  S
N1439      N1440   1.321       .  A
N1439      N1445   1.317       .  A
N1439     Mn1447   2.204       .  S
N1440      C1448   1.351       .  A
N1441      N1443   1.316       .  A
N1441      N1442   1.321       .  A
N1441     Mn1459   2.204       .  S
N1442      C1449   1.351       .  A
N1443      N1444   1.320       .  A
N1443     Mn1447   2.201       .  S
N1444      C1449   1.350       .  A
N1445      N1446   1.322       .  A
N1445     Mn1459   2.212       .  S
N1446      C1448   1.353       .  A
Mn1447    Cl1460   2.552       .  S
N1450      N1451   1.321       .  A
N1450      N1456   1.316       .  A
N1450     Mn1458   2.206       .  S
N1451      C1461   1.352       .  A
N1452      N1453   1.321       .  A
N1452      N1454   1.317       .  A
N1452     Mn1459   2.208       .  S
N1453      C1462   1.352       .  A
N1454      N1455   1.321       .  A
N1454     Mn1458   2.207       .  S
N1455      C1462   1.352       .  A
N1456      N1457   1.322       .  A
N1456     Mn1459   2.208       .  S
N1457      C1461   1.352       .  A
Mn1458    Cl1460   2.552       .  S
Mn1459    Cl1460   2.551       .  S
C1463      C1615   1.403       .  A
C1463      C1468   1.411       .  A
C1464      C1765   1.403   1_554  A
C1464      C1465   1.400       .  A
C1464      H1473   1.084       .  S
C1465      C1768   1.417   1_554  A
C1465      S1469   1.802       .  S
C1466      C1616   1.417       .  A
C1466      C1467   1.407       .  A
C1467      C1468   1.400       .  A
C1467      H1474   1.084       .  S
C1468      S1470   1.804       .  S
S1469      H1472   1.407       .  S
S1470      H1471   1.406       .  S
C1475      C1627   1.398       .  A
C1475      C1480   1.408       .  A
C1476      C1777   1.398   1_554  A
C1476      C1477   1.400       .  A
C1476      H1485   1.084       .  S
C1477      C1780   1.425       .  A
C1477      S1481   1.800       .  S
C1478      C1628   1.425       .  A
C1478      C1479   1.412       .  A
C1479      C1480   1.400       .  A
C1479      H1486   1.083       .  S
C1480      S1482   1.805       .  S
S1481      H1484   1.408       .  S
S1482      H1483   1.404       .  S
C1487      C1790   1.409       .  A
C1487      C1492   1.418   1_556  A
C1488      C1638   1.409       .  A
C1488      C1489   1.399       .  A
C1488      H1497   1.083       .  S
C1489      C1641   1.409       .  A
C1489      S1493   1.804       .  S
C1490      C1700   1.488       .  S
C1490      C1791   1.410       .  A
C1490      C1491   1.402   1_556  A
C1491      C1492   1.401       .  A
C1491      H1498   1.084       .  S
C1492      S1494   1.802       .  S
S1493      H1496   1.406       .  S
S1494      H1495   1.407       .  S
C1499      C1802   1.409       .  A
C1499      C1504   1.419   1_556  A
C1500      C1650   1.409       .  A
C1500      C1501   1.399       .  A
C1500      H1509   1.083       .  S
C1501      C1653   1.409       .  A
C1501      S1505   1.804       .  S
C1502      C1701   1.489       .  S
C1502      C1803   1.410       .  A
C1502      C1503   1.401   1_556  A
C1503      C1504   1.404       .  A
C1503      H1510   1.083       .  S
C1504      S1506   1.809       .  S
S1505      H1508   1.406       .  S
S1506      H1507   1.407       .  S
C1511      N1516   1.361       .  A
C1511      C1650   1.492       .  S
N1512      C1662   1.362       .  A
N1512      C1513   1.357       .  A
C1513      N1514   1.355       .  A
C1513      C1577   1.460       .  S
N1514      C1666   1.356       .  A
C1515      N1516   1.358       .  A
C1515      C1578   1.462       .  S
C1517      N1522   1.363       .  A
C1517      C1638   1.491       .  S
N1518      C1668   1.361       .  A
N1518      C1519   1.356       .  A
C1519      N1520   1.356       .  A
C1519      C1600   1.461       .  S
N1520      C1672   1.357       .  A
C1521      N1522   1.361       .  A
C1521      C1599   1.465       .  S
C1523      N1524   1.364       .  A
C1523      N1679   1.359       .  A
C1523      C1629   1.501       .  S
N1524      C1525   1.359       .  A
C1525      N1526   1.355       .  A
C1525      C1589   1.462       .  S
N1526      C1678   1.355       .  A
C1527      N1528   1.356       .  A
C1527      C1588   1.461       .  S
N1529      C1533   1.353       .  A
N1529      H1561   1.036       .  S
N1530      C1538   1.352       .  A
N1531      C1535   1.353       .  A
N1531      H1562   1.035       .  S
N1532      C1540   1.352       .  A
C1533      C1692   1.387       .  A
C1533      C1549   1.416       .  A
C1534      C1550   1.416       .  A
C1534      C1542   1.387       .  A
C1535      C1543   1.386       .  A
C1535      C1552   1.416       .  A
C1536      C1551   1.416       .  A
C1536      C1544   1.388       .  A
C1537      C1549   1.412       .  A
C1538      C1552   1.414       .  A
C1538      C1546   1.386       .  A
C1539      C1550   1.415       .  A
C1540      C1548   1.386       .  A
C1540      C1551   1.414       .  A
C1541      H1553   1.082       .  S
C1542      H1705   1.082       .  S
C1543      H1555   1.082       .  S
C1544      H1556   1.082       .  S
C1545      C1546   1.372       .  A
C1546      H1558   1.082       .  S
C1547      C1548   1.373       .  A
C1548      H1560   1.082       .  S
C1549      C1792   1.488       .  S
C1550      C1804   1.489       .  S
C1551      C1626   1.486       .  S
C1552      C1614   1.490       .  S
C1563      N1715   1.362       .  A
C1563      N1568   1.361       .  A
C1563      C1617   1.487       .  S
N1564      C1565   1.359       .  A
C1565      C1613   1.463       .  S
N1566      C1716   1.356       .  A
N1566      C1567   1.356       .  A
C1567      N1568   1.357       .  A
C1567      C1612   1.462       .  S
N1569      N1570   1.321       .  A
N1569      N1575   1.316       .  A
N1569     Mn1598   2.204       .  S
N1570      C1577   1.351       .  A
N1571      N1573   1.316       .  A
N1571      N1572   1.321       .  A
N1571     Mn1587   2.203       .  S
N1572      C1578   1.351       .  A
N1573      N1574   1.321       .  A
N1573     Mn1598   2.208       .  S
N1574      C1578   1.352       .  A
N1575      N1576   1.321       .  A
N1575     Mn1587   2.205       .  S
N1576      C1577   1.351       .  A
N1579      N1585   1.317       .  A
N1579      N1580   1.321       .  A
N1579     Mn1609   2.205       .  S
N1580      C1588   1.351       .  A
N1581      N1582   1.322       .  A
N1581      N1583   1.316       .  A
N1581     Mn1587   2.205       .  S
N1582      C1589   1.352       .  A
N1583      N1584   1.321       .  A
N1583     Mn1609   2.204       .  S
N1584      C1589   1.351       .  A
N1585      N1586   1.321       .  A
N1585     Mn1587   2.205       .  S
N1586      C1588   1.351       .  A
Mn1587    Cl1611   2.551       .  S
N1590      N1591   1.321       .  A
N1590      N1596   1.317       .  A
N1590     Mn1598   2.205       .  S
N1591      C1599   1.351       .  A
N1592      N1594   1.316       .  A
N1592      N1593   1.321       .  A
N1592     Mn1610   2.207       .  S
N1593      C1600   1.352       .  A
N1594      N1595   1.321       .  A
N1594     Mn1598   2.204       .  S
N1595      C1600   1.351       .  A
N1596      N1597   1.322       .  A
N1596     Mn1610   2.213       .  S
N1597      C1599   1.353       .  A
Mn1598    Cl1611   2.552       .  S
N1601      N1602   1.321       .  A
N1601      N1607   1.317       .  A
N1601     Mn1609   2.204       .  S
N1602      C1612   1.351       .  A
N1603      N1604   1.321       .  A
N1603      N1605   1.317       .  A
N1603     Mn1610   2.207       .  S
N1604      C1613   1.352       .  A
N1605      N1606   1.321       .  A
N1605     Mn1609   2.206       .  S
N1606      C1613   1.352       .  A
N1607      N1608   1.321       .  A
N1607     Mn1610   2.208       .  S
N1608      C1612   1.351       .  A
Mn1609    Cl1611   2.552       .  S
Mn1610    Cl1611   2.550       .  S
C1614      C1766   1.403       .  A
C1614      C1619   1.411       .  A
C1615      C1616   1.400       .  A
C1615      H1624   1.084       .  S
C1616      S1620   1.802       .  S
C1617      C1767   1.417       .  A
C1617      C1618   1.407       .  A
C1618      C1619   1.400       .  A
C1618      H1625   1.084       .  S
C1619      S1621   1.804       .  S
S1620      H1623   1.407       .  S
S1621      H1622   1.406       .  S
C1626      C1778   1.399       .  A
C1626      C1631   1.409       .  A
C1627      C1628   1.400       .  A
C1627      H1636   1.084       .  S
C1628      S1632   1.800       .  S
C1629      C1779   1.426       .  A
C1629      C1630   1.412       .  A
C1630      C1631   1.400       .  A
C1630      H1637   1.083       .  S
C1631      S1633   1.806       .  S
S1632      H1635   1.408       .  S
S1633      H1634   1.404       .  S
C1638      C1643   1.418       .  A
C1639      C1789   1.409       .  A
C1639      C1640   1.399       .  A
C1639      H1648   1.083       .  S
C1640      C1792   1.409       .  A
C1640      S1644   1.804       .  S
C1641      C1642   1.403       .  A
C1642      C1643   1.402       .  A
C1642      H1649   1.084       .  S
C1643      S1645   1.802       .  S
S1644      H1647   1.406       .  S
S1645      H1646   1.407       .  S
C1650      C1655   1.420       .  A
C1651      C1801   1.409       .  A
C1651      C1652   1.399       .  A
C1651      H1660   1.083       .  S
C1652      C1804   1.409       .  A
C1652      S1656   1.804       .  S
C1653      C1654   1.402       .  A
C1654      C1655   1.404       .  A
C1654      H1661   1.083       .  S
C1655      S1657   1.808       .  S
S1656      H1659   1.406       .  S
S1657      H1658   1.407       .  S
C1662      N1667   1.361       .  A
C1662      C1801   1.492       .  S
N1663      C1664   1.357       .  A
C1664      N1665   1.356       .  A
C1664      C1728   1.460       .  S
C1666      N1667   1.358       .  A
C1666      C1729   1.462       .  S
C1668      N1673   1.363       .  A
C1668      C1789   1.490       .  S
N1669      C1670   1.355       .  A
C1670      N1671   1.355   1_556  A
C1670      C1751   1.460       .  S
C1672      N1673   1.360       .  A
C1672      C1750   1.464       .  S
C1674      N1675   1.364   1_554  A
C1674      C1780   1.501       .  S
N1675      C1676   1.359       .  A
C1676      N1677   1.355       .  A
C1676      C1740   1.463       .  S
C1678      N1679   1.356       .  A
C1678      C1739   1.460       .  S
N1680      C1684   1.353       .  A
N1680      H1712   1.035       .  S
N1681      C1689   1.352       .  A
N1682      C1686   1.353   1_556  A
N1682      H1713   1.035       .  S
N1683      C1691   1.352       .  A
C1684      C1700   1.416       .  A
C1685      C1701   1.416       .  A
C1685      C1693   1.387   1_556  A
C1686      C1694   1.386       .  A
C1686      C1703   1.416   1_554  A
C1687      C1702   1.416   1_554  A
C1687      C1695   1.387       .  A
C1688      C1700   1.413       .  A
C1689      C1703   1.414       .  A
C1689      C1697   1.386       .  A
C1690      C1701   1.415       .  A
C1691      C1699   1.386       .  A
C1691      C1702   1.414       .  A
C1692      H1704   1.082       .  S
C1694      H1706   1.082       .  S
C1695      H1707   1.082       .  S
C1696      C1697   1.372       .  A
C1697      H1709   1.082       .  S
C1698      C1699   1.373       .  A
C1699      H1711   1.082       .  S
C1702      C1777   1.486       .  S
C1703      C1765   1.490       .  S
C1714      N1719   1.361   1_554  A
C1714      C1768   1.487   1_554  S
N1715      C1716   1.359       .  A
C1716      C1764   1.463       .  S
N1717      C1718   1.356   1_554  A
C1718      N1719   1.357       .  A
C1718      C1763   1.461       .  S
N1720      N1721   1.321       .  A
N1720      N1726   1.316       .  A
N1720     Mn1749   2.203       .  S
N1721      C1728   1.351       .  A
N1722      N1724   1.317       .  A
N1722      N1723   1.321       .  A
N1722     Mn1738   2.204       .  S
N1723      C1729   1.351       .  A
N1724      N1725   1.321       .  A
N1724     Mn1749   2.207       .  S
N1725      C1729   1.352       .  A
N1726      N1727   1.321       .  A
N1726     Mn1738   2.204       .  S
N1727      C1728   1.351       .  A
N1730      N1736   1.317       .  A
N1730      N1731   1.321       .  A
N1730     Mn1760   2.204       .  S
N1731      C1739   1.351       .  A
N1732      N1733   1.322       .  A
N1732      N1734   1.316       .  A
N1732     Mn1738   2.207       .  S
N1733      C1740   1.352       .  A
N1734      N1735   1.321       .  A
N1734     Mn1760   2.205       .  S
N1735      C1740   1.351       .  A
N1736      N1737   1.321       .  A
N1736     Mn1738   2.205       .  S
N1737      C1739   1.351       .  A
Mn1738    Cl1762   2.551       .  S
N1741      N1742   1.321       .  A
N1741      N1747   1.317       .  A
N1741     Mn1749   2.204       .  S
N1742      C1750   1.351       .  A
N1743      N1745   1.316       .  A
N1743      N1744   1.321       .  A
N1743     Mn1761   2.206       .  S
N1744      C1751   1.351       .  A
N1745      N1746   1.321       .  A
N1745     Mn1749   2.201       .  S
N1746      C1751   1.351       .  A
N1747      N1748   1.322       .  A
N1747     Mn1761   2.213       .  S
N1748      C1750   1.353       .  A
Mn1749    Cl1762   2.552       .  S
N1752      N1753   1.321       .  A
N1752      N1758   1.316       .  A
N1752     Mn1760   2.203       .  S
N1753      C1763   1.351       .  A
N1754      N1755   1.322       .  A
N1754      N1756   1.317       .  A
N1754     Mn1761   2.209       .  S
N1755      C1764   1.352       .  A
N1756      N1757   1.321       .  A
N1756     Mn1760   2.206       .  S
N1757      C1764   1.351       .  A
N1758      N1759   1.321       .  A
N1758     Mn1761   2.207       .  S
N1759      C1763   1.351       .  A
Mn1760    Cl1762   2.552       .  S
Mn1761    Cl1762   2.550       .  S
C1765      C1770   1.412       .  A
C1766      C1767   1.400       .  A
C1766      H1775   1.084       .  S
C1767      S1771   1.802       .  S
C1768      C1769   1.408       .  A
C1769      C1770   1.400       .  A
C1769      H1776   1.084       .  S
C1770      S1772   1.805       .  S
S1771      H1774   1.407       .  S
S1772      H1773   1.406       .  S
C1777      C1782   1.409       .  A
C1778      C1779   1.400       .  A
C1778      H1787   1.084       .  S
C1779      S1783   1.801       .  S
C1780      C1781   1.412   1_554  A
C1781      C1782   1.400       .  A
C1781      H1788   1.083       .  S
C1782      S1784   1.806       .  S
S1783      H1786   1.408       .  S
S1784      H1785   1.403       .  S
C1789      C1794   1.418       .  A
C1790      C1791   1.399       .  A
C1790      H1799   1.083       .  S
C1791      S1795   1.804       .  S
C1792      C1793   1.403       .  A
C1793      C1794   1.401       .  A
C1793      H1800   1.084       .  S
C1794      S1796   1.802       .  S
S1795      H1798   1.406       .  S
S1796      H1797   1.407       .  S
C1801      C1806   1.420       .  A
C1802      C1803   1.400       .  A
C1802      H1811   1.083       .  S
C1803      S1807   1.804       .  S
C1804      C1805   1.401       .  A
C1805      C1806   1.404       .  A
C1805      H1812   1.083       .  S
C1806      S1808   1.809       .  S
S1807      H1810   1.406       .  S
S1808      H1809   1.407       .  S
