geometry optimzed in LAMMPS
_audit_creation_date              2020-11-30 
_audit_creation_method            'lammps2cif' 
_symmetry_space_group_name_H-M    'P1' 
_symmetry_Int_Tables_number       1 
_symmetry_cell_setting            triclinic 
loop_ 
_symmetry_equiv_pos_as_xyz 
  x,y,z 
_cell_length_a                    32.29058674565502 
_cell_length_b                    32.33776882997406 
_cell_length_c                    32.26407587824894 
_cell_angle_alpha                 90.01332546351303 
_cell_angle_beta                  90.04451136435443 
_cell_angle_gamma                 89.99739619286338 
loop_ 
_atom_site_label 
_atom_site_type_symbol 
_atom_site_fract_x 
_atom_site_fract_y 
_atom_site_fract_z 
_atom_site_charge 
C1          C  0.23792416  0.87015043  0.96381471     0.04630
C2          C  0.23661707  0.84970252  0.00125867    -0.11520
C3          C  0.22866607  0.87042978  0.03777825     0.02130
C4          C  0.22567684  0.91405784  0.03780970    -0.10050
C5          C  0.22930596  0.93721094  0.00015427     0.04620
C6          C  0.23431875  0.91372900  0.96280496    -0.09470
H7          H  0.23905091  0.81618136  0.00167595     0.10220
H8          H  0.21951430  0.92891596  0.06706586     0.07750
H9          H  0.23552121  0.92826563  0.93279631     0.07590
C10         C  0.65618550  0.05061132  0.96483272     0.04630
C11         C  0.65523045  0.00687798  0.96399070    -0.11520
C12         C  0.66066756  0.98315720  0.00105410     0.02130
C13         C  0.66729368  0.00583877  0.03859016    -0.10050
C14         C  0.66842154  0.04951001  0.03845535     0.04620
C15         C  0.66274356  0.07083374  0.00190562    -0.09470
H16         H  0.64984468  0.99222486  0.93444657     0.10220
H17         H  0.67236735  0.99045991  0.06780748     0.07750
H18         H  0.66426811  0.10440391  0.00231202     0.07590
C19         C  0.90705716  0.67131218  0.08923949     0.04630
C20         C  0.94422909  0.67214822  0.11029888    -0.11520
C21         C  0.98162172  0.67373144  0.08968561     0.02130
C22         C  0.98220355  0.67550225  0.04595578    -0.10050
C23         C  0.94464568  0.67364614  0.02245003     0.04620
C24         C  0.90678593  0.67186345  0.04544532    -0.09470
H25         H  0.94398245  0.67302057  0.14397608     0.10220
H26         H  0.01199209  0.67852211  0.03121756     0.07750
H27         H  0.87708231  0.67041370  0.03022299     0.07590
C28         C  0.98556856  0.25379365  0.90957258     0.04630
C29         C  0.98561604  0.24955356  0.95307421    -0.11520
C30         C  0.94778753  0.24461595  0.97563224     0.02130
C31         C  0.91064047  0.24162056  0.95149059    -0.10050
C32         C  0.91163651  0.24523727  0.90777615     0.04620
C33         C  0.94868822  0.25341469  0.88808646    -0.09470
H34         H  0.01539338  0.25021291  0.96826702     0.10220
H35         H  0.88102583  0.23557656  0.96562205     0.07750
H36         H  0.94923308  0.25683757  0.85458330     0.07590
C37         C  0.65446024  0.86841335  0.03696906     0.04630
C38         C  0.65585989  0.91213902  0.03785725    -0.11520
C39         C  0.65948496  0.93570059  0.00048436     0.02130
C40         C  0.66228026  0.91285460  0.96258754    -0.10050
C41         C  0.65996209  0.86924056  0.96251939     0.04620
C42         C  0.65620946  0.84803154  0.99939854    -0.09470
H43         H  0.65378895  0.92691102  0.06774545     0.10220
H44         H  0.66675577  0.92806326  0.93317978     0.07750
H45         H  0.65633815  0.81443062  0.99882119     0.07590
C46         C  0.22528676  0.05220806  0.03633112     0.04630
C47         C  0.22756779  0.00852617  0.03733349    -0.11520
C48         C  0.22707276  0.98476057  0.99976454     0.02130
C49         C  0.22444992  0.00758084  0.96177804    -0.10050
C50         C  0.22327980  0.05122837  0.96186587     0.04620
C51         C  0.22432409  0.07252385  0.99881721    -0.09470
H52         H  0.22966397  0.99405852  0.06735063     0.10220
H53         H  0.22277749  0.99245329  0.93207968     0.07750
H54         H  0.22346615  0.10614441  0.99837370     0.07590
C55         C  0.90878522  0.67789160  0.90743725     0.04630
C56         C  0.90809810  0.67958484  0.95121915    -0.11520
C57         C  0.94500514  0.67316324  0.97490324     0.02130
C58         C  0.98237627  0.66658264  0.95205482    -0.10050
C59         C  0.98210023  0.66459104  0.90831468     0.04620
C60         C  0.94524956  0.66875403  0.88713189    -0.09470
H61         H  0.87898214  0.68679327  0.96588942     0.10220
H62         H  0.01185753  0.66283548  0.96727318     0.07750
H63         H  0.94536205  0.66729682  0.85348975     0.07590
C64         C  0.90955045  0.24062254  0.09008010     0.04630
C65         C  0.90927719  0.24187410  0.04626616    -0.11520
C66         C  0.94725368  0.24221447  0.02323596     0.02130
C67         C  0.98480266  0.24027975  0.04688377    -0.10050
C68         C  0.98397958  0.23988394  0.09061217     0.04620
C69         C  0.94667232  0.24216072  0.11108382    -0.09470
H70         H  0.87950784  0.24244857  0.03116444     0.10220
H71         H  0.01483376  0.23844088  0.03234840     0.07750
H72         H  0.94651048  0.24337334  0.14476005     0.07590
C73         C  0.85449632  0.00209052  0.28268063     0.04630
C74         C  0.83301670  0.96544284  0.28568142    -0.11520
C75         C  0.85274854  0.92780147  0.28220131     0.02130
C76         C  0.89653605  0.92642101  0.28133882    -0.10050
C77         C  0.92076115  0.96362357  0.28202069     0.04620
C78         C  0.89819171  0.00178971  0.28146821    -0.09470
H79         H  0.79946468  0.96637601  0.28821983     0.10220
H80         H  0.91062658  0.89627291  0.27948950     0.07750
H81         H  0.91345713  0.03135337  0.27973618     0.07590
C82         C  0.03480210  0.92245449  0.71769753     0.04630
C83         C  0.05588513  0.95946035  0.71865624    -0.11520
C84         C  0.03655646  0.99647713  0.70972498     0.02130
C85         C  0.99285570  0.99703770  0.70508942    -0.10050
C86         C  0.96863950  0.96016335  0.70938186     0.04620
C87         C  0.99116410  0.92232107  0.71452136    -0.09470
H88         H  0.08882297  0.95893925  0.72538904     0.10220
H89         H  0.97853099  0.02622328  0.69783160     0.07750
H90         H  0.97587413  0.89276750  0.71616581     0.07590
C91         C  0.85472827  0.00030926  0.70824132     0.04630
C92         C  0.89853486  0.99963450  0.70926168    -0.11520
C93         C  0.92095722  0.96134436  0.70840125     0.02130
C94         C  0.89668773  0.92426064  0.70786564    -0.10050
C95         C  0.85290048  0.92575606  0.70784346     0.04620
C96         C  0.83308520  0.96354462  0.70842628    -0.09470
H97         H  0.91414724  0.02902144  0.71122280     0.10220
H98         H  0.91082127  0.89409841  0.70747031     0.07750
H99         H  0.79951020  0.96441629  0.71049474     0.07590
C100        C  0.03458446  0.92405323  0.28658007     0.04630
C101        C  0.99094581  0.92446657  0.28410297    -0.11520
C102        C  0.96844446  0.96263863  0.28300082     0.02130
C103        C  0.99269759  0.99981286  0.28321919    -0.10050
C104        C  0.03641692  0.99842046  0.28587563     0.04620
C105        C  0.05625525  0.96071011  0.28755379    -0.09470
H106        H  0.97564793  0.89486857  0.28311385     0.10220
H107        H  0.97868058  0.02998503  0.28143612     0.07750
H108        H  0.08990841  0.95974636  0.28779378     0.07590
C109        C  0.40627922  0.37206136  0.20266352     0.04630
C110        C  0.44334253  0.35092285  0.20339014    -0.11520
C111        C  0.48020687  0.37087582  0.21175195     0.02130
C112        C  0.48098631  0.41448876  0.21491258    -0.10050
C113        C  0.44380479  0.43830732  0.21112563     0.04620
C114        C  0.40606162  0.41557284  0.20636371    -0.09470
H115        H  0.44310172  0.31744045  0.20054499     0.10220
H116        H  0.51041300  0.42884693  0.22140508     0.07750
H117        H  0.37630426  0.43062726  0.20541710     0.07590
O118        O  0.67563195  0.15302147  0.19622279    -0.83850
O119        O  0.69303650  0.13004642  0.27377727    -0.80890
C120        C  0.73260662  0.12800951  0.27232882     0.99610
O121        O  0.75373160  0.15985117  0.26788703    -0.80930
O122        O  0.77918978  0.23675740  0.25019718    -0.83570
C123        C  0.78110663  0.23565889  0.21062525     1.04140
O124        O  0.74918542  0.23139383  0.18957902    -0.76330
O125        O  0.67317955  0.21271886  0.16386354    -0.76520
C126        C  0.67380311  0.17311170  0.16338102     1.04090
O127        O  0.61258278  0.21348532  0.22086250    -0.83840
O128        O  0.63497800  0.19658551  0.29868612    -0.80910
C129        C  0.65447925  0.19202313  0.33161365     0.99630
O130        O  0.69379405  0.18725914  0.33088871    -0.80940
O131        O  0.71373607  0.26357896  0.30766368    -0.83540
C132        C  0.71805284  0.29628230  0.28791573     1.04110
O133        O  0.72158238  0.29552434  0.24838670    -0.76360
O134        O  0.64476555  0.27274351  0.22671325    -0.76510
C135        C  0.61210384  0.25299326  0.22165864     1.04070
Cr136      Cr  0.65634796  0.17543256  0.24749481     1.93740
Cr137      Cr  0.73302202  0.21190368  0.28680085     1.93210
Cr138      Cr  0.69705112  0.25086212  0.20938320     1.39100
O139        O  0.69560420  0.21262559  0.24762503    -1.21600
C140        C  0.41155328  0.36866849  0.78855098     0.04630
C141        C  0.41006784  0.41230869  0.78489423    -0.11520
C142        C  0.44675818  0.43678399  0.78940836     0.02130
C143        C  0.48477624  0.41494529  0.79539278    -0.10050
C144        C  0.48522821  0.37147498  0.79953590     0.04620
C145        C  0.44858540  0.34962693  0.79818877    -0.09470
H146        H  0.38064926  0.42638034  0.77752592     0.10220
H147        H  0.51406291  0.43089714  0.79721923     0.07750
H148        H  0.44942855  0.31620617  0.80158713     0.07590
C149        C  0.53637989  0.16600407  0.53648099     0.04630
C150        C  0.55705256  0.16887556  0.49917329    -0.11520
C151        C  0.53626180  0.17001583  0.46180018     0.02130
C152        C  0.49252056  0.17090627  0.46141213    -0.10050
C153        C  0.46931658  0.16830896  0.49907493     0.04620
C154        C  0.49254201  0.16561876  0.53678956    -0.09470
H155        H  0.59058157  0.17157151  0.49921574     0.10220
H156        H  0.47748235  0.17403444  0.43172773     0.07750
H157        H  0.47736053  0.16298245  0.56644205     0.07590
O158        O  0.61148787  0.21007200  0.77875782    -0.83850
O159        O  0.63443024  0.19396989  0.70061826    -0.80890
C160        C  0.65402988  0.19062837  0.66760044     0.99610
O161        O  0.69363670  0.18829475  0.66828363    -0.80930
O162        O  0.71130116  0.26570269  0.69303946    -0.83570
C163        C  0.71494735  0.29779984  0.71403782     1.04140
O164        O  0.71756181  0.29596566  0.75359255    -0.76330
O165        O  0.64170394  0.27036600  0.77306311    -0.76520
C166        C  0.60961852  0.24957727  0.77710161     1.04090
O167        O  0.67757851  0.15166288  0.80254573    -0.83840
O168        O  0.69556016  0.12998280  0.72507536    -0.80910
C169        C  0.73511937  0.12947299  0.72821227     0.99630
O170        O  0.75464534  0.16241755  0.73174492    -0.80940
O171        O  0.77699487  0.23945868  0.75078924    -0.83540
C172        C  0.77879684  0.23741598  0.79037851     1.04110
O173        O  0.74684217  0.23144778  0.81105461    -0.76360
O174        O  0.67042085  0.21018566  0.83575675    -0.76510
C175        C  0.67402051  0.17073387  0.83581197     1.04070
Cr176      Cr  0.65683361  0.17364278  0.75169832     1.93740
Cr177      Cr  0.73194444  0.21385696  0.71313355     1.93210
Cr178      Cr  0.69413344  0.24980862  0.79115886     1.39100
O179        O  0.69432047  0.21250673  0.75201033    -1.21600
C180        C  0.74035020  0.42284538  0.40911266     0.04630
C181        C  0.73653954  0.46000016  0.38845301    -0.11520
C182        C  0.72832492  0.49637188  0.40922126     0.02130
C183        C  0.72648620  0.49651336  0.45298140    -0.10050
C184        C  0.73207142  0.45919321  0.47612903     0.04620
C185        C  0.73831009  0.42206364  0.45288751    -0.09470
H186        H  0.73776851  0.46034994  0.35480669     0.10220
H187        H  0.71959262  0.52546147  0.46813050     0.07750
H188        H  0.74177017  0.39250069  0.46797190     0.07590
C189        C  0.48221090  0.55245091  0.21221306     0.04630
C190        C  0.48223164  0.50872715  0.21114582    -0.11520
C191        C  0.44430817  0.48579043  0.21285272     0.02130
C192        C  0.40685508  0.50934797  0.21548077    -0.10050
C193        C  0.40766715  0.55300150  0.21556442     0.04620
C194        C  0.44514344  0.57345309  0.21510950    -0.09470
H195        H  0.51183117  0.49355243  0.20845083     0.10220
H196        H  0.37690783  0.49478351  0.21747235     0.07750
H197        H  0.44545780  0.60695664  0.21766018     0.07590
O198        O  0.72287440  0.62779643  0.25038699    -0.83850
O199        O  0.64547804  0.65096240  0.23343410    -0.80890
C200        C  0.61259094  0.67079843  0.23063760     0.99610
O201        O  0.61338763  0.71024998  0.22749855    -0.80930
O202        O  0.63766502  0.72875006  0.30467552    -0.83570
C203        C  0.65844695  0.73232598  0.33697013     1.04140
O204        O  0.69795727  0.73471046  0.33546161    -0.76330
O205        O  0.71743144  0.65863866  0.31053321    -0.76520
C206        C  0.72186417  0.62642993  0.29001147     1.04090
O207        O  0.74810653  0.69307798  0.19144865    -0.83840
O208        O  0.67051547  0.71094727  0.16892832    -0.80910
C209        C  0.67362060  0.75038886  0.16794340     0.99630
O210        O  0.67700434  0.77033820  0.20075335    -0.80940
O211        O  0.69571983  0.79364882  0.27799675    -0.83540
C212        C  0.73529466  0.79523703  0.27666965     1.04110
O213        O  0.75597272  0.76321565  0.27135931    -0.76360
O214        O  0.78038462  0.68667667  0.25083688    -0.76510
C215        C  0.78099423  0.68985315  0.21130996     1.04070
Cr216      Cr  0.69672721  0.67288452  0.21326882     1.93740
Cr217      Cr  0.65817184  0.74854744  0.25261315     1.93210
Cr218      Cr  0.73567358  0.71079356  0.28977100     1.39100
O219        O  0.69689268  0.71077058  0.25193177    -1.21600
C220        C  0.53568870  0.75077139  0.53542651     0.04630
C221        C  0.55615242  0.74609351  0.49821765    -0.11520
C222        C  0.53492562  0.74198516  0.46139553     0.02130
C223        C  0.49122060  0.74278291  0.46107572    -0.10050
C224        C  0.46814097  0.74728889  0.49872775     0.04620
C225        C  0.49185970  0.75095623  0.53614173    -0.09470
H226        H  0.58978501  0.74477528  0.49788566     0.10220
H227        H  0.47626683  0.73943769  0.43132166     0.07750
H228        H  0.47732060  0.75417670  0.56599875     0.07590
C229        C  0.73253176  0.49607177  0.59073504     0.04630
C230        C  0.72588593  0.45919746  0.61129378    -0.11520
C231        C  0.72251922  0.42220662  0.59027981     0.02130
C232        C  0.72457594  0.42156973  0.54656013    -0.10050
C233        C  0.73044567  0.45894683  0.52358660     0.04620
C234        C  0.73477185  0.49627271  0.54695344    -0.09470
H235        H  0.72301452  0.45915416  0.64484372     0.10220
H236        H  0.72077790  0.39212658  0.53130461     0.07750
H237        H  0.74040507  0.52551589  0.53187478     0.07590
C238        C  0.48071723  0.55186899  0.78068696     0.04630
C239        C  0.48215158  0.50813967  0.78074819    -0.11520
C240        C  0.44552830  0.48414865  0.78763208     0.02130
C241        C  0.40770619  0.50642865  0.79335218    -0.10050
C242        C  0.40722645  0.55016034  0.79370500     0.04620
C243        C  0.44367327  0.57173229  0.78825383    -0.09470
H244        H  0.51160929  0.49362182  0.77463988     0.10220
H245        H  0.37871516  0.49054300  0.79819143     0.07750
H246        H  0.44294489  0.60531769  0.78850864     0.07590
O247        O  0.67604286  0.76968274  0.80457170    -0.83850
O248        O  0.69362405  0.79643081  0.72787196    -0.80890
C249        C  0.73307957  0.79753032  0.73123759     0.99610
O250        O  0.75309062  0.76482878  0.73410056    -0.80930
O251        O  0.77720685  0.68753985  0.74887137    -0.83570
C252        C  0.77793253  0.68684208  0.78852420     1.04140
O253        O  0.74529975  0.68986838  0.80867224    -0.76330
O254        O  0.66905713  0.70858821  0.83317518    -0.76520
C255        C  0.67260048  0.74789604  0.83616892     1.04090
O256        O  0.61074224  0.71231543  0.77629951    -0.83840
O257        O  0.63400661  0.73360932  0.69968831    -0.80910
C258        C  0.65409575  0.73692277  0.66693822     0.99630
O259        O  0.69360682  0.74048504  0.66800975    -0.80940
O260        O  0.71316609  0.66315270  0.68823903    -0.83540
C261        C  0.71586565  0.62961151  0.70693926     1.04110
O262        O  0.71833286  0.62900955  0.74651468    -0.76360
O263        O  0.64141108  0.65283804  0.76607931    -0.76510
C264        C  0.60928691  0.67289985  0.77286370     1.04070
Cr265      Cr  0.65578700  0.75084082  0.75199123     1.93740
Cr266      Cr  0.73209948  0.71402463  0.71198137     1.93210
Cr267      Cr  0.69348067  0.67235191  0.78644498     1.39100
O268        O  0.69378470  0.71230930  0.75008104    -1.21600
C269        C  0.35335910  0.75159826  0.53656599     0.04630
C270        C  0.33243737  0.74998462  0.49929120    -0.11520
C271        C  0.35316860  0.74736279  0.46209451     0.02130
C272        C  0.39685060  0.74671102  0.46136450    -0.10050
C273        C  0.42042180  0.74807579  0.49897321     0.04620
C274        C  0.39719325  0.74993686  0.53681100    -0.09470
H275        H  0.29878810  0.74937961  0.49914843     0.10220
H276        H  0.41139422  0.74502262  0.43129010     0.07750
H277        H  0.41214005  0.74996741  0.56666341     0.07590
C278        C  0.15254963  0.49908492  0.59048772     0.04630
C279        C  0.15597638  0.46198560  0.61130090    -0.11520
C280        C  0.15855641  0.42480773  0.59058960     0.02130
C281        C  0.16005591  0.42425436  0.54689900    -0.10050
C282        C  0.15658346  0.46168610  0.52351584     0.04620
C283        C  0.15271168  0.49931181  0.54661728    -0.09470
H284        H  0.15791944  0.46199592  0.64492603     0.10220
H285        H  0.16433207  0.39466390  0.53211497     0.07750
H286        H  0.14958872  0.52881951  0.53138566     0.07590
O287        O  0.19663999  0.73932907  0.67013873    -0.83850
O288        O  0.17785880  0.66193913  0.69106027    -0.80890
C289        C  0.17350884  0.62869780  0.70991027     0.99610
O290        O  0.16953735  0.62862811  0.74943368    -0.80930
O291        O  0.24624128  0.65086645  0.76991390    -0.83570
C292        C  0.27912880  0.67026293  0.77463226     1.04140
O293        O  0.27856563  0.70966986  0.77881056    -0.76330
O294        O  0.25585778  0.73111543  0.70203490    -0.76520
C295        C  0.23608453  0.73530421  0.66919544     1.04090
O296        O  0.13650883  0.76365168  0.73499887    -0.83840
O297        O  0.11240210  0.68608472  0.75020654    -0.80910
C298        C  0.11063833  0.68803445  0.78979309     0.99630
O299        O  0.14294840  0.69150103  0.81052423    -0.80940
O300        O  0.22008260  0.70830498  0.83613718    -0.83540
C301        C  0.21783061  0.74778855  0.83845873     1.04110
O302        O  0.21445127  0.76889026  0.80644551    -0.76360
O303        O  0.19645088  0.79502758  0.73026353    -0.76510
C304        C  0.15689892  0.79622701  0.73333459     1.04070
Cr305      Cr  0.15793862  0.71273568  0.71376377     1.93740
Cr306      Cr  0.19472730  0.67202939  0.78950783     1.93210
Cr307      Cr  0.23420791  0.74909587  0.75423693     1.39100
O308        O  0.19563870  0.71133291  0.75253559    -1.21600
C309        C  0.35481549  0.16126823  0.46224711     0.04630
C310        C  0.39858114  0.16190290  0.46183685    -0.11520
C311        C  0.42179706  0.16842357  0.49902534     0.02130
C312        C  0.39857230  0.17581958  0.53601019    -0.10050
C313        C  0.35476568  0.17533768  0.53563182     0.04620
C314        C  0.33395859  0.16662231  0.49919781    -0.09470
H315        H  0.41360828  0.15715352  0.43239093     0.10220
H316        H  0.41372519  0.18302191  0.56493743     0.07750
H317        H  0.30032768  0.16615000  0.49920358     0.07590
O318        O  0.24918390  0.27100028  0.77177166    -0.83850
O319        O  0.17363824  0.29819203  0.75181670    -0.80890
C320        C  0.17962210  0.29987522  0.71272509     0.99610
O321        O  0.18467400  0.26752491  0.69266726    -0.80930
O322        O  0.19792251  0.19030901  0.66768230    -0.83570
C323        C  0.23745667  0.18832824  0.66850010     1.04140
O324        O  0.25637888  0.19015327  0.70203658    -0.76330
O325        O  0.27804965  0.21009023  0.77939372    -0.76520
C326        C  0.28063095  0.24969944  0.77795070     1.04090
O327        O  0.21928883  0.21391883  0.83568763    -0.83840
O328        O  0.14339380  0.23481557  0.80959001    -0.80910
C329        C  0.11189431  0.24011854  0.78804921     0.99630
O330        O  0.11477486  0.24382702  0.74856312    -0.80940
O331        O  0.13418196  0.16669041  0.72788836    -0.83540
C332        C  0.15188198  0.13255754  0.72655728     1.04110
O333        O  0.19158617  0.13074428  0.72720736    -0.76360
O334        O  0.20941672  0.15440193  0.80503841    -0.76510
C335        C  0.21485961  0.17470600  0.83731309     1.04070
Cr336      Cr  0.19635117  0.25223707  0.79000805     1.93740
Cr337      Cr  0.15996278  0.21709174  0.71145878     1.93210
Cr338      Cr  0.23176135  0.17359876  0.75336520     1.39100
O339        O  0.19592790  0.21396660  0.75165492    -1.21600
C340        C  0.15336535  0.42382904  0.40918617     0.04630
C341        C  0.15268284  0.42389353  0.45296803    -0.11520
C342        C  0.15724485  0.46142425  0.47597715     0.02130
C343        C  0.16284301  0.49853950  0.45253714    -0.10050
C344        C  0.16358770  0.49772864  0.40873233     0.04620
C345        C  0.15834135  0.46065771  0.38810203    -0.09470
H346        H  0.14820394  0.39455562  0.46816218     0.10220
H347        H  0.16755528  0.52800342  0.46746599     0.07750
H348        H  0.15913940  0.46037763  0.35445823     0.07590
O349        O  0.14351057  0.69535768  0.19075161    -0.83850
O350        O  0.22144032  0.71252185  0.16983863    -0.80890
C351        C  0.22132205  0.75210032  0.16898007     0.99610
O352        O  0.21757182  0.77242424  0.20153119    -0.80930
O353        O  0.19545002  0.79603911  0.27783924    -0.83570
C354        C  0.15628064  0.79842453  0.27244535     1.04140
O355        O  0.13529679  0.76657236  0.26742056    -0.76330
O356        O  0.10998926  0.68990666  0.24937309    -0.76520
C357        C  0.11017624  0.69280094  0.20990878     1.04090
O358        O  0.16769459  0.63056624  0.25121799    -0.83840
O359        O  0.24532918  0.65266998  0.23518188    -0.80910
C360        C  0.27843291  0.67227686  0.23344878     0.99630
O361        O  0.27814903  0.71166581  0.23061507    -0.80940
O362        O  0.25120283  0.72971424  0.30689555    -0.83540
C363        C  0.22953438  0.73475636  0.33832165     1.04110
O364        O  0.19027829  0.73896037  0.33518302    -0.76360
O365        O  0.17003212  0.66227994  0.31132314    -0.76510
C366        C  0.16741588  0.62970623  0.29089443     1.04070
Cr367      Cr  0.19444158  0.67498505  0.21393691     1.93740
Cr368      Cr  0.23326639  0.75025511  0.25419543     1.93210
Cr369      Cr  0.15376841  0.71445831  0.28868295     1.39100
O370        O  0.19385557  0.71313611  0.25221777    -1.21600
O371        O  0.11406002  0.23448177  0.25071119    -0.83850
O372        O  0.13824399  0.15695543  0.26424470    -0.80890
C373        C  0.15857033  0.12435259  0.26618384     0.99610
O374        O  0.19806424  0.12557001  0.26926380    -0.80930
O375        O  0.21584916  0.15310876  0.19311149    -0.83570
C376        C  0.21954035  0.17514067  0.16174548     1.04140
O377        O  0.22155051  0.21458327  0.16493822    -0.76330
O378        O  0.14492263  0.23313813  0.19017857    -0.76520
C379        C  0.11265725  0.23552959  0.21109348     1.04090
O380        O  0.17880923  0.25832831  0.31076958    -0.83840
O381        O  0.19798667  0.17996041  0.32994139    -0.80910
C382        C  0.23747913  0.18323734  0.33101280     0.99630
O383        O  0.25731747  0.18863093  0.29837430    -0.80940
O384        O  0.28013582  0.21078875  0.22137008    -0.83540
C385        C  0.28147843  0.25001314  0.22629200     1.04110
O386        O  0.24913756  0.26976224  0.23297733    -0.76360
O387        O  0.17200912  0.29281590  0.25281684    -0.76510
C388        C  0.17478292  0.29194325  0.29235175     1.04070
Cr389      Cr  0.15944364  0.20753520  0.28673209     1.93740
Cr390      Cr  0.23563558  0.17171097  0.24575779     1.93210
Cr391      Cr  0.19705784  0.25022947  0.21228613     1.39100
O392        O  0.19720700  0.20975913  0.24811778    -1.21600
C393        C  0.13595547  0.56396612  0.38090654     0.25100
C394        C  0.16774994  0.53456193  0.38179404    -0.23010
C395        C  0.19744153  0.53444496  0.34956569     0.20000
C396        C  0.19489894  0.56279129  0.31684843     0.25040
C397        C  0.16306079  0.59212899  0.31605916    -0.22960
C398        C  0.13372288  0.59253857  0.34848167     0.19940
F399        F  0.10335607  0.62160877  0.34917742    -0.12910
F400        F  0.10615481  0.56400223  0.41057467    -0.15280
F401        F  0.22452786  0.56280786  0.28702925    -0.15280
F402        F  0.22838516  0.50599342  0.34939701    -0.12910
C403        C  0.12841843  0.38354241  0.34768860     0.25100
C404        C  0.15414281  0.38610561  0.38312884    -0.23010
C405        C  0.18765859  0.35887374  0.38673254     0.20000
C406        C  0.19587612  0.33031225  0.35534391     0.25040
C407        C  0.17078786  0.32832419  0.31952242    -0.22960
C408        C  0.13686476  0.35507512  0.31603561     0.19940
F409        F  0.11111966  0.35263872  0.28283625    -0.12910
F410        F  0.09585995  0.40975961  0.34321119    -0.15280
F411        F  0.22857512  0.30426755  0.35994018    -0.15280
F412        F  0.21386832  0.36146772  0.41956683    -0.12910
C413        C  0.32924828  0.15473958  0.60540731     0.25100
C414        C  0.32816998  0.18263436  0.57231935    -0.23010
C415        C  0.29497864  0.21115000  0.56967680     0.20000
C416        C  0.26307577  0.21100703  0.59910008     0.25040
C417        C  0.26402111  0.18270692  0.63186818    -0.22960
C418        C  0.29757531  0.15477665  0.63486881     0.19940
F419        F  0.29981828  0.12759432  0.66689730    -0.12910
F420        F  0.35998549  0.12621555  0.60818991    -0.15280
F421        F  0.23231347  0.23951952  0.59655429    -0.15280
F422        F  0.29308569  0.23854369  0.53782562    -0.12910
C423        C  0.32927950  0.19818623  0.40027676     0.25100
C424        C  0.32844872  0.16246131  0.42472985    -0.23010
C425        C  0.29463278  0.13493449  0.42071214     0.20000
C426        C  0.26240029  0.14312384  0.39261946     0.25040
C427        C  0.26333495  0.17910164  0.36842317    -0.22960
C428        C  0.29706811  0.20650563  0.37271063     0.19940
F429        F  0.29909774  0.24135571  0.34937195    -0.12910
F430        F  0.36019044  0.22631654  0.40479646    -0.15280
F431        F  0.23128049  0.11529003  0.38794489    -0.15280
F432        F  0.29239934  0.10072080  0.44499428    -0.12910
C433        C  0.18710645  0.56343022  0.61459911     0.25100
C434        C  0.15346877  0.53631664  0.61732962    -0.23010
C435        C  0.12777997  0.53801091  0.65289384     0.20000
C436        C  0.13638224  0.56541647  0.68544255     0.25040
C437        C  0.17029743  0.59218538  0.68274985    -0.22960
C438        C  0.19545308  0.59097925  0.64687462     0.19940
F439        F  0.22806090  0.61722004  0.64283455    -0.12910
F440        F  0.21319438  0.56181800  0.58164408    -0.15280
F441        F  0.11069883  0.56691607  0.71869705    -0.15280
F442        F  0.09515984  0.51176666  0.65668442    -0.12910
C443        C  0.20043931  0.36879128  0.62256898     0.25100
C444        C  0.16200739  0.38827189  0.61779107    -0.23010
C445        C  0.13098287  0.38174026  0.64793845     0.20000
C446        C  0.13845240  0.35662578  0.68242084     0.25040
C447        C  0.17687821  0.33718574  0.68718591    -0.22960
C448        C  0.20773552  0.34332354  0.65682385     0.19940
F449        F  0.24453877  0.32314796  0.65969961    -0.12910
F450        F  0.23136548  0.37567472  0.59492788    -0.15280
F451        F  0.10740461  0.34934405  0.70982572    -0.15280
F452        F  0.09382531  0.40113807  0.64454759    -0.12910
C453        C  0.27283013  0.70245926  0.39172225     0.25100
C454        C  0.25334759  0.73834953  0.37671485    -0.23010
C455        C  0.27051604  0.77709610  0.38640028     0.20000
C456        C  0.30628091  0.77990649  0.41083888     0.25040
C457        C  0.32590842  0.74399878  0.42558936    -0.22960
C458        C  0.30855441  0.70525446  0.41616801     0.19940
F459        F  0.32550744  0.67019393  0.43194669    -0.12910
F460        F  0.25832112  0.66455631  0.38080444    -0.15280
F461        F  0.32120181  0.81776414  0.42125381    -0.15280
F462        F  0.25395955  0.81209808  0.37007638    -0.12910
C463        C  0.32775957  0.71640941  0.60024450     0.25100
C464        C  0.32663578  0.75080508  0.57396355    -0.23010
C465        C  0.29292556  0.77866941  0.57710939     0.20000
C466        C  0.26080986  0.77182292  0.60553585     0.25040
C467        C  0.26201837  0.73731195  0.63166585    -0.22960
C468        C  0.29590856  0.70977110  0.62876286     0.19940
F469        F  0.29851713  0.67656740  0.65441047    -0.12910
F470        F  0.35875211  0.68820304  0.59707687    -0.15280
F471        F  0.22963461  0.79979714  0.60879029    -0.15280
F472        F  0.29070808  0.81207025  0.55168941    -0.12910
C473        C  0.57525343  0.61408552  0.80719168     0.25100
C474        C  0.57225209  0.64727088  0.77888758    -0.23010
C475        C  0.54131240  0.64634524  0.74854802     0.20000
C476        C  0.51403857  0.61271921  0.74637299     0.25040
C477        C  0.51675804  0.57968605  0.77507172    -0.22960
C478        C  0.54774603  0.58074830  0.80538120     0.19940
F479        F  0.55040097  0.55027791  0.83420489    -0.12910
F480        F  0.60606484  0.61342257  0.83588155    -0.15280
F481        F  0.48392172  0.61286771  0.71695486    -0.15280
F482        F  0.53860997  0.67707149  0.72002753    -0.12910
C483        C  0.34485220  0.57647394  0.75808233     0.25100
C484        C  0.36959064  0.57624263  0.79370039    -0.23010
C485        C  0.36675970  0.60984970  0.82166967     0.20000
C486        C  0.34020607  0.64326571  0.81366241     0.25040
C487        C  0.31596190  0.64361520  0.77765664    -0.22960
C488        C  0.31852011  0.60975066  0.75006689     0.19940
F489        F  0.29439493  0.60847596  0.71556348    -0.12910
F490        F  0.34797634  0.54555692  0.72975730    -0.15280
F491        F  0.33697317  0.67433541  0.84177175    -0.15280
F492        F  0.39132152  0.61101674  0.85583298    -0.12910
C493        C  0.74953787  0.56330274  0.68515692     0.25100
C494        C  0.71839308  0.59292948  0.67989667    -0.23010
C495        C  0.69495746  0.59281938  0.64283610     0.20000
C496        C  0.70219209  0.56351456  0.61191800     0.25040
C497        C  0.73297139  0.53354154  0.61722805    -0.22960
C498        C  0.75704314  0.53408723  0.65395715     0.19940
F499        F  0.78712220  0.50535353  0.66003625    -0.12910
F500        F  0.77361233  0.56355717  0.71966880    -0.15280
F501        F  0.67761647  0.56314070  0.57774423    -0.15280
F502        F  0.66484249  0.62147218  0.63648893    -0.12910
C503        C  0.59649547  0.77883689  0.57465449     0.25100
C504        C  0.56273110  0.75097110  0.57253685    -0.23010
C505        C  0.56226350  0.71673735  0.59902675     0.20000
C506        C  0.59477718  0.71027235  0.62682480     0.25040
C507        C  0.62835924  0.73818410  0.62925759    -0.22960
C508        C  0.62900670  0.77249571  0.60283001     0.19940
F509        F  0.66009058  0.80063721  0.60544314    -0.12910
F510        F  0.59839153  0.81162981  0.54843768    -0.15280
F511        F  0.59316535  0.67687257  0.65229198    -0.15280
F512        F  0.53129715  0.68842381  0.59659320    -0.12910
C513        C  0.61949581  0.70001444  0.39402995     0.25100
C514        C  0.63360297  0.73622722  0.37466400    -0.23010
C515        C  0.61119146  0.77312948  0.38019663     0.20000
C516        C  0.57572699  0.77398172  0.40508591     0.25040
C517        C  0.56168107  0.73784935  0.42461628    -0.22960
C518        C  0.58410134  0.70088470  0.41910698     0.19940
F519        F  0.57240518  0.66597168  0.43933160    -0.12910
F520        F  0.63901027  0.66345451  0.38710590    -0.15280
F521        F  0.55590554  0.81045451  0.41149846    -0.15280
F522        F  0.62267644  0.80798593  0.35973458    -0.12910
C523        C  0.31986999  0.61432606  0.26107021     0.25100
C524        C  0.31575068  0.64647789  0.23177744    -0.23010
C525        C  0.33925279  0.64511651  0.19540483     0.20000
C526        C  0.36637126  0.61213195  0.18836950     0.25040
C527        C  0.37082511  0.58009384  0.21785132    -0.22960
C528        C  0.34725484  0.58150515  0.25424014     0.19940
F529        F  0.35192674  0.55201208  0.28382107    -0.12910
F530        F  0.29651433  0.61444836  0.29606862    -0.15280
F531        F  0.38939635  0.61190248  0.15315371    -0.15280
F532        F  0.33439219  0.67456342  0.16580536    -0.12910
C533        C  0.54462531  0.57876965  0.24884988     0.25100
C534        C  0.51957154  0.57900062  0.21342534    -0.23010
C535        C  0.52281047  0.61251034  0.18540437     0.20000
C536        C  0.55029039  0.64521142  0.19293707     0.25040
C537        C  0.57516645  0.64494408  0.22847290    -0.22960
C538        C  0.57202332  0.61140417  0.25634330     0.19940
F539        F  0.59634098  0.61001590  0.29069435    -0.12910
F540        F  0.54115910  0.54792794  0.27719108    -0.15280
F541        F  0.55388157  0.67612026  0.16470295    -0.15280
F542        F  0.49811002  0.61409070  0.15135045    -0.12910
C543        C  0.75390034  0.56318386  0.38133390     0.25100
C544        C  0.72293108  0.53297625  0.38227697    -0.23010
C545        C  0.69386474  0.53128565  0.34945857     0.20000
C546        C  0.69621865  0.55893620  0.31613493     0.25040
C547        C  0.72726205  0.58908123  0.31526848    -0.22960
C548        C  0.75600795  0.59098026  0.34825089     0.19940
F549        F  0.78547151  0.62096508  0.34896292    -0.12910
F550        F  0.78308631  0.56470965  0.41161557    -0.15280
F551        F  0.66720348  0.55742808  0.28571276    -0.15280
F552        F  0.66399332  0.50171596  0.34916024    -0.12910
C553        C  0.75496361  0.34056101  0.66562703     0.25100
C554        C  0.71872512  0.33561912  0.68933101    -0.23010
C555        C  0.68244601  0.35586391  0.67661111     0.20000
C556        C  0.68244431  0.38074461  0.64106292     0.25040
C557        C  0.71870921  0.38559294  0.61730157    -0.22960
C558        C  0.75502858  0.36548482  0.63014999     0.19940
F559        F  0.79099048  0.37138272  0.60918536    -0.12910
F560        F  0.78991801  0.31958156  0.67595072    -0.15280
F561        F  0.64741440  0.40148082  0.63053178    -0.15280
F562        F  0.64660844  0.35018997  0.69776131    -0.12910
C563        C  0.55995925  0.20233497  0.60014302     0.25100
C564        C  0.56319577  0.16816460  0.57379688    -0.23010
C565        C  0.59897191  0.14288597  0.57641550     0.20000
C566        C  0.63103333  0.15220895  0.60427721     0.25040
C567        C  0.62777163  0.18665568  0.63034033    -0.22960
C568        C  0.59185686  0.21150458  0.62788861     0.19940
F569        F  0.58741873  0.24469820  0.65310622    -0.12910
F570        F  0.52684530  0.22810926  0.59761370    -0.15280
F571        F  0.66432330  0.12671440  0.60694639    -0.15280
F572        F  0.60331598  0.10979047  0.55086133    -0.12910
C573        C  0.37988040  0.30561553  0.75620715     0.25100
C574        C  0.37592759  0.34024103  0.78289338    -0.23010
C575        C  0.34287482  0.34147070  0.81077617     0.20000
C576        C  0.31445792  0.30890229  0.81217094     0.25040
C577        C  0.31820683  0.27437626  0.78544433    -0.22960
C578        C  0.35130217  0.27298629  0.75756112     0.19940
F579        F  0.35465253  0.24127786  0.73018165    -0.12910
F580        F  0.41198435  0.30327041  0.72912614    -0.15280
F581        F  0.28179575  0.31187393  0.83853373    -0.15280
F582        F  0.33875248  0.37366068  0.83748524    -0.12910
C583        C  0.53918972  0.33819696  0.75753876     0.25100
C584        C  0.52254079  0.34530362  0.79696967    -0.23010
C585        C  0.53108170  0.31679571  0.82896451     0.20000
C586        C  0.55594456  0.28195343  0.82150013     0.25040
C587        C  0.57202417  0.27463253  0.78175947    -0.22960
C588        C  0.56351291  0.30334493  0.75007071     0.19940
F589        F  0.58064835  0.29859573  0.71206200    -0.12910
F590        F  0.52992364  0.36390600  0.72555748    -0.15280
F591        F  0.56601156  0.25654653  0.85344599    -0.15280
F592        F  0.51403052  0.32212757  0.86704091    -0.12910
C593        C  0.69438039  0.33593091  0.34854897     0.25100
C594        C  0.72150798  0.33318121  0.31432459    -0.23010
C595        C  0.75775667  0.35694462  0.31434884     0.20000
C596        C  0.76656045  0.38308289  0.34793093     0.25040
C597        C  0.73915150  0.38593457  0.38203563    -0.22960
C598        C  0.70322074  0.36174977  0.38203884     0.19940
F599        F  0.67545506  0.36481891  0.41348953    -0.12910
F600        F  0.65961828  0.31231442  0.35003284    -0.15280
F601        F  0.80109920  0.40700208  0.34658500    -0.15280
F602        F  0.78540048  0.35350203  0.28285741    -0.12910
C603        C  0.59476164  0.21676458  0.37264235     0.25100
C604        C  0.62843746  0.18910533  0.36880557    -0.23010
C605        C  0.62903665  0.15321776  0.39295665     0.20000
C606        C  0.59649832  0.14502947  0.42035082     0.25040
C607        C  0.56312090  0.17305957  0.42473895    -0.22960
C608        C  0.56253868  0.20891287  0.40045412     0.19940
F609        F  0.53167305  0.23709616  0.40479727    -0.12910
F610        F  0.59272239  0.25114812  0.34854817    -0.15280
F611        F  0.59801855  0.11012676  0.44371892    -0.15280
F612        F  0.65995023  0.12511133  0.38848661    -0.12910
C613        C  0.33601710  0.28157706  0.18219499     0.25100
C614        C  0.31850190  0.27592089  0.22156272    -0.23010
C615        C  0.32629662  0.30556337  0.25263710     0.20000
C616        C  0.35145381  0.33977856  0.24482838     0.25040
C617        C  0.36928512  0.34540125  0.20565510    -0.22960
C618        C  0.36136947  0.31593834  0.17434857     0.19940
F619        F  0.37941457  0.31993162  0.13656699    -0.12910
F620        F  0.32687144  0.25505547  0.15087071    -0.15280
F621        F  0.36019988  0.36635923  0.27623755    -0.15280
F622        F  0.30804252  0.30209250  0.29036372    -0.12910
C623        C  0.51379080  0.30982073  0.24535165     0.25100
C624        C  0.51648569  0.34344600  0.21736997    -0.23010
C625        C  0.54889177  0.34438384  0.18867078     0.20000
C626        C  0.57798041  0.31239499  0.18781736     0.25040
C627        C  0.57509336  0.27865863  0.21548869    -0.22960
C628        C  0.54269074  0.27757549  0.24417739     0.19940
F629        F  0.54016393  0.24640949  0.27224778    -0.12910
F630        F  0.48243049  0.30792957  0.27332788    -0.15280
F631        F  0.60983931  0.31472024  0.16043877    -0.15280
F632        F  0.55154470  0.37549559  0.16054850    -0.12910
C633        C  0.12200740  0.85281963  0.31368468     0.25100
C634        C  0.13174638  0.83641807  0.27467005    -0.23010
C635        C  0.10577221  0.84546733  0.24075786     0.20000
C636        C  0.07081079  0.87049684  0.24568974     0.25040
C637        C  0.06095516  0.88687201  0.28469786    -0.22960
C638        C  0.08703236  0.87797097  0.31863230     0.19940
F639        F  0.07928852  0.89507697  0.35627549    -0.12910
F640        F  0.14512939  0.84268895  0.34735266    -0.15280
F641        F  0.04757465  0.88033147  0.21200482    -0.15280
F642        F  0.11353928  0.82848965  0.20304454    -0.12910
C643        C  0.10141974  0.08219940  0.23834018     0.25100
C644        C  0.13313161  0.08678928  0.26812523    -0.23010
C645        C  0.13024743  0.06498916  0.30548568     0.20000
C646        C  0.09620017  0.03924680  0.31302177     0.25040
C647        C  0.06443717  0.03459599  0.28316597    -0.22960
C648        C  0.06745530  0.05638420  0.24576543     0.19940
F649        F  0.03834929  0.05141991  0.21577889    -0.12910
F650        F  0.10282567  0.10406097  0.20242134    -0.15280
F651        F  0.09466933  0.01770380  0.34912243    -0.15280
F652        F  0.15919386  0.07038288  0.33554776    -0.12910
C653        C  0.82594338  0.86497903  0.74684726     0.25100
C654        C  0.82511236  0.88938800  0.71101519    -0.23010
C655        C  0.79070844  0.88619853  0.68397342     0.20000
C656        C  0.75778933  0.85942040  0.69282379     0.25040
C657        C  0.75881753  0.83494257  0.72855614    -0.22960
C658        C  0.79318743  0.83807316  0.75552193     0.19940
F659        F  0.79547440  0.81390875  0.78989625    -0.12910
F660        F  0.85766935  0.86836314  0.77428937    -0.15280
F661        F  0.72605224  0.85581159  0.66543762    -0.15280
F662        F  0.78863241  0.91004703  0.64938630    -0.12910
C663        C  0.82706456  0.06103578  0.74692398     0.25100
C664        C  0.82842339  0.03785576  0.71029329    -0.23010
C665        C  0.79623441  0.04280829  0.68091122     0.20000
C666        C  0.76298841  0.06962721  0.68849518     0.25040
C667        C  0.76148423  0.09244066  0.72532713    -0.22960
C668        C  0.79415580  0.08823410  0.75421122     0.19940
F669        F  0.79463514  0.11150949  0.78925087    -0.12910
F670        F  0.85662510  0.05602013  0.77645220    -0.15280
F671        F  0.73337656  0.07477655  0.65905448    -0.15280
F672        F  0.79638379  0.02024794  0.64540141    -0.12910
C673        C  0.10083721  0.83856149  0.76312817     0.25100
C674        C  0.13134508  0.83378938  0.73214245    -0.23010
C675        C  0.12657164  0.85502443  0.69464863     0.20000
C676        C  0.09208818  0.88054173  0.68834112     0.25040
C677        C  0.06178636  0.88557602  0.71954988    -0.22960
C678        C  0.06662858  0.86443006  0.75705552     0.19940
F679        F  0.03901372  0.86994271  0.78828646    -0.12910
F680        F  0.10343284  0.81663354  0.79883666    -0.15280
F681        F  0.08887973  0.90182906  0.65219938    -0.15280
F682        F  0.15406319  0.84929019  0.66335203    -0.12910
C683        C  0.05319209  0.06913778  0.73049121     0.25100
C684        C  0.06395724  0.03360224  0.70841438    -0.23010
C685        C  0.10449263  0.03095205  0.69135438     0.20000
C686        C  0.13427129  0.06153861  0.69930741     0.25040
C687        C  0.12359126  0.09658525  0.72232483    -0.22960
C688        C  0.08220313  0.10040603  0.73666055     0.19940
F689        F  0.06928336  0.13478504  0.75685962    -0.12910
F690        F  0.01510172  0.07309211  0.74784617    -0.15280
F691        F  0.17291274  0.05752445  0.68326187    -0.15280
F692        F  0.11555365  0.99823136  0.66737893    -0.12910
C693        C  0.82551007  0.86045496  0.30903797     0.25100
C694        C  0.82486146  0.89148301  0.27883282    -0.23010
C695        C  0.79148574  0.89269445  0.25030206     0.20000
C696        C  0.75917794  0.86398288  0.25251698     0.25040
C697        C  0.76006232  0.83285341  0.28250395    -0.22960
C698        C  0.79356348  0.83126809  0.31068719     0.19940
F699        F  0.79588919  0.80036031  0.33910609    -0.12910
F700        F  0.85643546  0.85901122  0.33753174    -0.15280
F701        F  0.72827931  0.86520945  0.22398744    -0.15280
F702        F  0.79000616  0.92229969  0.22047144    -0.12910
C703        C  0.81751938  0.06202818  0.31354563     0.25100
C704        C  0.82789434  0.03892985  0.27830574    -0.23010
C705        C  0.80245758  0.04175903  0.24282874     0.20000
C706        C  0.76742429  0.06720793  0.24261527     0.25040
C707        C  0.75705720  0.09032310  0.27782602    -0.22960
C708        C  0.78264862  0.08778940  0.31317084     0.19940
F709        F  0.77478373  0.11192190  0.34671618    -0.12910
F710        F  0.84043087  0.05860442  0.34867743    -0.15280
F711        F  0.74475719  0.07092233  0.20733587    -0.15280
F712        F  0.81079432  0.01832568  0.20890505    -0.12910
C713        C  0.84641742  0.27114331  0.12234320     0.25100
C714        C  0.87275568  0.23717075  0.11714621    -0.23010
C715        C  0.87155689  0.20478144  0.14659732     0.20000
C716        C  0.84507138  0.20670784  0.18080736     0.25040
C717        C  0.81884940  0.24070697  0.18604434    -0.22960
C718        C  0.81949244  0.27274789  0.15630195     0.19940
F719        F  0.79249440  0.30482262  0.15933294    -0.12910
F720        F  0.84766759  0.30325628  0.09527757    -0.15280
F721        F  0.84335867  0.17434606  0.20757038    -0.15280
F722        F  0.89738963  0.17184338  0.14282713    -0.12910
C723        C  0.04668961  0.27081449  0.12310647     0.25100
C724        C  0.02053295  0.23667157  0.11798973    -0.23010
C725        C  0.02173457  0.20446960  0.14759251     0.20000
C726        C  0.04837510  0.20654957  0.18170498     0.25040
C727        C  0.07485177  0.24041955  0.18651421    -0.22960
C728        C  0.07383873  0.27251828  0.15688253     0.19940
F729        F  0.10049519  0.30487278  0.15998721    -0.12910
F730        F  0.04497332  0.30303650  0.09618699    -0.15280
F731        F  0.04984044  0.17454490  0.20887537    -0.15280
F732        F  0.99585221  0.17155277  0.14400870    -0.12910
C733        C  0.87519725  0.71215496  0.84662766     0.25100
C734        C  0.87247333  0.68406499  0.88019036    -0.23010
C735        C  0.84061158  0.65484096  0.88051038     0.20000
C736        C  0.81228376  0.65330617  0.84785798     0.25040
C737        C  0.81507378  0.68112701  0.81417668    -0.22960
C738        C  0.84680905  0.71054204  0.81381304     0.19940
F739        F  0.84919602  0.73876307  0.78276378    -0.12910
F740        F  0.90625507  0.74044764  0.84523377    -0.15280
F741        F  0.78103350  0.62522433  0.84961849    -0.15280
F742        F  0.83793174  0.62667995  0.91160602    -0.12910
C743        C  0.02396817  0.63805456  0.84870916     0.25100
C744        C  0.01940713  0.66625997  0.88190729    -0.23010
C745        C  0.04196231  0.70317911  0.88119837     0.20000
C746        C  0.06805084  0.71205875  0.84799932     0.25040
C747        C  0.07289532  0.68404624  0.81487815    -0.22960
C748        C  0.05069767  0.64681333  0.81555060     0.19940
F749        F  0.05623582  0.61830396  0.78516848    -0.12910
F750        F  0.00132693  0.60268231  0.84789464    -0.15280
F751        F  0.08993553  0.74779739  0.84876184    -0.15280
F752        F  0.03693133  0.73180910  0.91159354    -0.12910
C753        C  0.25576538  0.12810406  0.88153769     0.25100
C754        C  0.21850429  0.14968800  0.87492783    -0.23010
C755        C  0.18203426  0.13483317  0.89325709     0.20000
C756        C  0.18285688  0.09942318  0.91816753     0.25040
C757        C  0.22013992  0.07784588  0.92489555    -0.22960
C758        C  0.25665248  0.09273205  0.90660044     0.19940
F759        F  0.29339899  0.07382166  0.91431912    -0.12910
F760        F  0.29098696  0.14036168  0.86211918    -0.15280
F761        F  0.14753828  0.08703197  0.93731935    -0.15280
F762        F  0.14529614  0.15378931  0.88562309    -0.12910
C763        C  0.18686152  0.13880190  0.10342667     0.25100
C764        C  0.22339394  0.15162639  0.12313414    -0.23010
C765        C  0.25972573  0.12813477  0.11742481     0.20000
C766        C  0.25960385  0.09280866  0.09219884     0.25040
C767        C  0.22296497  0.07983654  0.07276880    -0.22960
C768        C  0.18664893  0.10340172  0.07844297     0.19940
F769        F  0.15119388  0.09269245  0.05847074    -0.12910
F770        F  0.15080382  0.15929129  0.11035545    -0.15280
F771        F  0.29547264  0.07186005  0.08581650    -0.15280
F772        F  0.29483534  0.13824101  0.13830219    -0.12910
C773        C  0.62747823  0.82052044  0.91297927     0.25100
C774        C  0.66294408  0.84253659  0.92555579    -0.23010
C775        C  0.70205854  0.82835982  0.91294662     0.20000
C776        C  0.70555186  0.79342174  0.88750584     0.25040
C777        C  0.67006953  0.77150815  0.87480502    -0.22960
C778        C  0.63100106  0.78548749  0.88770339     0.19940
F779        F  0.59612029  0.76652512  0.87383456    -0.12910
F780        F  0.58944083  0.83239263  0.92639054    -0.15280
F781        F  0.74353645  0.78193014  0.87357373    -0.15280
F782        F  0.73691453  0.84759714  0.92647906    -0.12910
C783        C  0.63570353  0.77536058  0.10533624     0.25100
C784        C  0.67113047  0.77605831  0.13036446    -0.23010
C785        C  0.69884173  0.80967298  0.12694819     0.20000
C786        C  0.69133773  0.84194166  0.09917055     0.25040
C787        C  0.65599223  0.84136905  0.07401960    -0.22960
C788        C  0.62812158  0.80776582  0.07746466     0.19940
F789        F  0.59398614  0.80597973  0.05291252    -0.12910
F790        F  0.60757506  0.74440944  0.10922461    -0.15200
F791        F  0.71960904  0.87281303  0.09551397    -0.15280
F792        F  0.73299714  0.81161129  0.15147204    -0.12910
C793        C  0.87768991  0.21297586  0.84597821     0.25100
C794        C  0.87536484  0.24054417  0.88001322    -0.23010
C795        C  0.84325545  0.26952791  0.88129414     0.20000
C796        C  0.81404082  0.27097973  0.84932636     0.25040
C797        C  0.81640695  0.24356556  0.81528839    -0.22960
C798        C  0.84855743  0.21463532  0.81383243     0.19940
F799        F  0.85050116  0.18668216  0.78249181    -0.12910
F800        F  0.90875476  0.18474028  0.84372072    -0.15280
F801        F  0.78233602  0.29845423  0.85215152    -0.15280
F802        F  0.84090086  0.29722586  0.91283616    -0.12910
C803        C  0.03619759  0.21276736  0.87018411     0.25100
C804        C  0.02266797  0.25188014  0.88309925    -0.23010
C805        C  0.03480224  0.28693849  0.86029359     0.20000
C806        C  0.06040343  0.28284384  0.82536932     0.25040
C807        C  0.07365277  0.24355332  0.81226931    -0.22960
C808        C  0.06183277  0.20873706  0.83563705     0.19940
F809        F  0.07754417  0.17091379  0.82667798    -0.12910
F810        F  0.02320358  0.17819763  0.89024225    -0.15280
F811        F  0.07440074  0.31733995  0.80591981    -0.15280
F812        F  0.02114813  0.32501191  0.87156276    -0.12910
C813        C  0.85004214  0.71150738  0.12116674     0.25100
C814        C  0.87003104  0.67338037  0.11605419    -0.23010
C815        C  0.86382464  0.64215185  0.14599962     0.20000
C816        C  0.83809106  0.64896954  0.18029372     0.25040
C817        C  0.81822730  0.68715957  0.18537344    -0.22960
C818        C  0.82431677  0.71826377  0.15536289     0.19940
F819        F  0.80416020  0.75497567  0.15871292    -0.12910
F820        F  0.85699617  0.74285556  0.09405295    -0.15280
F821        F  0.83099823  0.61768416  0.20742868    -0.15280
F822        F  0.88407073  0.60550048  0.14262343    -0.12910
C823        C  0.06834977  0.72007751  0.15194272     0.25100
C824        C  0.07320155  0.69038030  0.18360038    -0.23010
C825        C  0.05081928  0.65340147  0.18138394     0.20000
C826        C  0.02391465  0.64627323  0.14813797     0.25040
C827        C  0.01853722  0.67626838  0.11673146    -0.22960
C828        C  0.04108561  0.71320664  0.11894921     0.19940
F829        F  0.03543017  0.74329230  0.09014761    -0.12910
F830        F  0.09081958  0.75556556  0.15272034    -0.15280
F831        F  0.00194523  0.61047022  0.14708442    -0.15280
F832        F  0.05655067  0.62340595  0.21026653    -0.12910
C833        C  0.63764914  0.14569282  0.89951713     0.25100
C834        C  0.67157790  0.14381391  0.87258579    -0.23010
C835        C  0.69733982  0.10846780  0.87347406     0.20000
C836        C  0.68945761  0.07578560  0.90054777     0.25040
C837        C  0.65590163  0.07768713  0.92783263    -0.22960
C838        C  0.62980531  0.11288334  0.92687374     0.19940
F839        F  0.59752484  0.11597271  0.95365435    -0.12910
F840        F  0.61128574  0.17836583  0.89821857    -0.15280
F841        F  0.71601393  0.04323540  0.90166985    -0.15280
F842        F  0.73001337  0.10526545  0.84720200    -0.12910
C843        C  0.70709600  0.10342706  0.07748740     0.25100
C844        C  0.67302186  0.07614395  0.07532290    -0.23010
C845        C  0.63771023  0.08476877  0.09899129     0.20000
C846        C  0.63634293  0.11992421  0.12418083     0.25040
C847        C  0.67021382  0.14734833  0.12619293    -0.22960
C848        C  0.70577771  0.13856907  0.10290873     0.19940
F849        F  0.73980246  0.16303261  0.10619600    -0.12910
F850        F  0.74098546  0.09676505  0.05350150    -0.15280
F851        F  0.60242209  0.12647068  0.14818092    -0.15280
F852        F  0.60378044  0.06012164  0.09615772    -0.12910
C853        C  0.18990806  0.80203772  0.88371272     0.25100
C854        C  0.22122036  0.77253259  0.87655570    -0.23010
C855        C  0.26011395  0.77853216  0.89503873     0.20000
C856        C  0.26721851  0.81310380  0.92046014     0.25040
C857        C  0.23575167  0.84269032  0.92722269    -0.22960
C858        C  0.19705095  0.83663698  0.90859421     0.19940
F859        F  0.16545451  0.86332936  0.91609935    -0.12910
F860        F  0.15268524  0.79829928  0.86471016    -0.15280
F861        F  0.30449793  0.81731086  0.93948488    -0.15280
F862        F  0.29175282  0.75216788  0.88672337    -0.12910
C863        C  0.19537983  0.77867275  0.10156355     0.25100
C864        C  0.22669646  0.77732428  0.13153209    -0.23010
C865        C  0.25633215  0.80941662  0.13277685     0.20000
C866        C  0.25485387  0.84210896  0.10446411     0.25040
C867        C  0.22354971  0.84357782  0.07451679    -0.22960
C868        C  0.19370107  0.81157115  0.07338238     0.19940
F869        F  0.16357215  0.81172708  0.04397842    -0.12910
F870        F  0.16542715  0.74922505  0.10079682    -0.15280
F871        F  0.28486699  0.87150064  0.10528316    -0.15280
F872        F  0.28618270  0.80956279  0.16246817    -0.12910
loop_ 
_geom_bond_atom_site_label_1 
_geom_bond_atom_site_label_2 
_geom_bond_distance 
_geom_bond_site_symmetry_2 
_ccdc_geom_bond_type 
C1            C2   1.378   1_556  A
C1            C6   1.414       .  A
C1          C857   1.479       .  S
C2            C3   1.380       .  A
C2            H7   1.087       .  S
C3            C4   1.414       .  A
C3          C867   1.479       .  S
C4            C5   1.432       .  A
C4            H8   1.078       .  S
C5            C6   1.433   1_554  A
C5           C48   1.539   1_554  S
C6            H9   1.077       .  S
C10          C11   1.415       .  A
C10          C15   1.379   1_556  A
C10         C837   1.481       .  S
C11          C12   1.432   1_546  A
C11          H16   1.078   1_545  S
C12          C13   1.432   1_565  A
C12          C39   1.535       .  S
C13          C14   1.413       .  A
C13          H17   1.078   1_545  S
C14          C15   1.378       .  A
C14         C844   1.476       .  S
C15          H18   1.087       .  S
C19          C20   1.379       .  A
C19          C24   1.413       .  A
C19         C814   1.478       .  S
C20          C21   1.380       .  A
C20          H25   1.087       .  S
C21          C22   1.412       .  A
C21         C827   1.479   1_655  S
C22          C23   1.431       .  A
C22          H26   1.078   1_655  S
C23          C24   1.432       .  A
C23          C57   1.534   1_554  S
C24          H27   1.078       .  S
C28          C29   1.410       .  A
C28          C33   1.378       .  A
C28         C804   1.473   1_655  S
C29          C30   1.431       .  A
C29          H34   1.079   1_655  S
C30          C31   1.433       .  A
C30          C66   1.538   1_556  S
C31          C32   1.416       .  A
C31          H35   1.078       .  S
C32          C33   1.381       .  A
C32         C794   1.482       .  S
C33          H36   1.087       .  S
C37          C38   1.415       .  A
C37          C42   1.381   1_554  A
C37         C787   1.482       .  S
C38          C39   1.431       .  A
C38          H43   1.078       .  S
C39          C40   1.431   1_554  A
C40          C41   1.412       .  A
C40          H44   1.079       .  S
C41          C42   1.379       .  A
C41         C774   1.475       .  S
C42          H45   1.087       .  S
C46          C47   1.415       .  A
C46          C51   1.378   1_554  A
C46         C767   1.478       .  S
C47          C48   1.435   1_544  A
C47          H52   1.078   1_545  S
C48          C49   1.433   1_565  A
C49          C50   1.412       .  A
C49          H53   1.077   1_545  S
C50          C51   1.377       .  A
C50         C757   1.475       .  S
C51          H54   1.088       .  S
C55          C56   1.414       .  A
C55          C60   1.380       .  A
C55         C734   1.478       .  S
C56          C57   1.430       .  A
C56          H61   1.078       .  S
C57          C58   1.430       .  A
C58          C59   1.413       .  A
C58          H62   1.078   1_655  S
C59          C60   1.378       .  A
C59         C744   1.477   1_655  S
C60          H63   1.086       .  S
C64          C65   1.414       .  A
C64          C69   1.377       .  A
C64         C714   1.479       .  S
C65          C66   1.434       .  A
C65          H70   1.078       .  S
C66          C67   1.433       .  A
C67          C68   1.411       .  A
C67          H71   1.079   1_655  S
C68          C69   1.376       .  A
C68         C724   1.477   1_655  S
C69          H72   1.087       .  S
C73          C74   1.377   1_545  A
C73          C78   1.412       .  A
C73         C704   1.475       .  S
C74          C75   1.378       .  A
C74          H79   1.087       .  S
C75          C76   1.415       .  A
C75         C694   1.484       .  S
C76          C77   1.435       .  A
C76          H80   1.078       .  S
C77          C78   1.433   1_565  A
C77         C102   1.540       .  S
C78          H81   1.077       .  S
C82          C83   1.377       .  A
C82          C87   1.413   1_455  A
C82         C677   1.478       .  S
C83          C84   1.380       .  A
C83          H88   1.086       .  S
C84          C85   1.419   1_455  A
C84         C684   1.492   1_565  S
C85          C86   1.433       .  A
C85          H89   1.077   1_565  S
C86          C87   1.433       .  A
C86          C93   1.540       .  S
C87          H90   1.077       .  S
C91          C92   1.415   1_545  A
C91          C96   1.379   1_545  A
C91         C664   1.483       .  S
C92          C93   1.435       .  A
C92          H97   1.078   1_565  S
C93          C94   1.433       .  A
C94          C95   1.415       .  A
C94          H98   1.077       .  S
C95          C96   1.379       .  A
C95         C654   1.483       .  S
C96          H99   1.087       .  S
C100        C101   1.411   1_455  A
C100        C105   1.377       .  A
C100        C637   1.475       .  S
C101        C102   1.433       .  A
C101        H106   1.078       .  S
C102        C103   1.435       .  A
C103        C104   1.415   1_655  A
C103        H107   1.077   1_565  S
C104        C105   1.379       .  A
C104        C647   1.482   1_565  S
C105        H108   1.087       .  S
C109        C110   1.378       .  A
C109        C114   1.412       .  A
C109        C617   1.476       .  S
C110        C111   1.380       .  A
C110        H115   1.087       .  S
C111        C112   1.414       .  A
C111        C624   1.480       .  S
C112        C113   1.432       .  A
C112        H116   1.078       .  S
C113        C114   1.431       .  A
C113        C191   1.537       .  S
C114        H117   1.078       .  S
O118       Cr136   1.911       .  S
O118        C126   1.244       .  A
O119       Cr136   2.068       .  S
O119        C120   1.280       .  A
C120        C707   1.463       .  S
C120        O121   1.244       .  A
O121       Cr137   1.911       .  S
O122       Cr137   2.066       .  S
O122        C123   1.279       .  A
C123        C717   1.464       .  S
C123        O124   1.242       .  A
O124       Cr138   1.908       .  S
O125       Cr138   2.066       .  S
O125        C126   1.281       .  A
C126        C847   1.465       .  S
O127       Cr136   2.061       .  S
O127        C135   1.278       .  A
O128       Cr136   1.917       .  S
O128        C129   1.243       .  A
C129        C604   1.469       .  S
C129        O130   1.279       .  A
O130       Cr137   2.066       .  S
O131       Cr137   1.906       .  S
O131        C132   1.243       .  A
C132        C594   1.470       .  S
C132        O133   1.281       .  A
O133       Cr138   2.072       .  S
O134       Cr138   1.914       .  S
O134        C135   1.244       .  A
C135        C627   1.468       .  S
Cr136       O139   1.747       .  S
Cr137       O139   1.748       .  S
Cr138       O139   1.748       .  S
C140        C141   1.417       .  A
C140        C145   1.380       .  A
C140        C574   1.484       .  S
C141        C142   1.432       .  A
C141        H146   1.080       .  S
C142        C143   1.429       .  A
C142        C240   1.533       .  S
C143        C144   1.412       .  A
C143        H147   1.079       .  S
C144        C145   1.379       .  A
C144        C584   1.475       .  S
C145        H148   1.087       .  S
C149        C150   1.380       .  A
C149        C154   1.416       .  A
C149        C564   1.484       .  S
C150        C151   1.380       .  A
C150        H155   1.086       .  S
C151        C152   1.413       .  A
C151        C607   1.481       .  S
C152        C153   1.431       .  A
C152        H156   1.078       .  S
C153        C154   1.432       .  A
C153        C311   1.534       .  S
C154        H157   1.079       .  S
O158       Cr176   2.073       .  S
O158        C166   1.280       .  A
O159       Cr176   1.916       .  S
O159        C160   1.244       .  A
C160        C567   1.476       .  S
C160        O161   1.281       .  A
O161       Cr177   2.075       .  S
O162       Cr177   1.917       .  S
O162        C163   1.245       .  A
C163        C554   1.465       .  S
C163        O164   1.280       .  A
O164       Cr178   2.067       .  S
O165       Cr178   1.910       .  S
O165        C166   1.242       .  A
C166        C587   1.467       .  S
O167       Cr176   1.909       .  S
O167        C175   1.243       .  A
O168       Cr176   2.073       .  S
O168        C169   1.281       .  A
C169        C667   1.472       .  S
C169        O170   1.243       .  A
O170       Cr177   1.914       .  S
O171       Cr177   2.067       .  S
O171        C172   1.280       .  A
C172        C797   1.469       .  S
C172        O173   1.244       .  A
O173       Cr178   1.913       .  S
O174       Cr178   2.074       .  S
O174        C175   1.281       .  A
C175        C834   1.474       .  S
Cr176       O179   1.745       .  S
Cr177       O179   1.747       .  S
Cr178       O179   1.746       .  S
C180        C181   1.380       .  A
C180        C185   1.414       .  A
C180        C597   1.479       .  S
C181        C182   1.379       .  A
C181        H186   1.086       .  S
C182        C183   1.413       .  A
C182        C544   1.479       .  S
C183        C184   1.431       .  A
C183        H187   1.079       .  S
C184        C185   1.430       .  A
C184        C233   1.532       .  S
C185        H188   1.079       .  S
C189        C190   1.414       .  A
C189        C194   1.379       .  A
C189        C534   1.481       .  S
C190        C191   1.433       .  A
C190        H195   1.078       .  S
C191        C192   1.432       .  A
C192        C193   1.412       .  A
C192        H196   1.078       .  S
C193        C194   1.379       .  A
C193        C527   1.479       .  S
C194        H197   1.087       .  S
O198       Cr216   2.067       .  S
O198        C206   1.280       .  A
O199       Cr216   1.915       .  S
O199        C200   1.244       .  A
C200        C537   1.471       .  S
C200        O201   1.280       .  A
O201       Cr217   2.069       .  S
O202       Cr217   1.916       .  S
O202        C203   1.244       .  A
C203        C514   1.463       .  S
C203        O204   1.279       .  A
O204       Cr218   2.063       .  S
O205       Cr218   1.908       .  S
O205        C206   1.242       .  A
C206        C547   1.467       .  S
O207       Cr216   1.917       .  S
O207        C215   1.244       .  A
O208       Cr216   2.068       .  S
O208        C209   1.280       .  A
C209        C784   1.472       .  S
C209        O210   1.244       .  A
O210       Cr217   1.915       .  S
O211       Cr217   2.065       .  S
O211        C212   1.280       .  A
C212        C697   1.468       .  S
C212        O213   1.244       .  A
O213       Cr218   1.912       .  S
O214       Cr218   2.067       .  S
O214        C215   1.280       .  A
C215        C817   1.468       .  S
Cr216       O219   1.748       .  S
Cr217       O219   1.748       .  S
Cr218       O219   1.748       .  S
C220        C221   1.379       .  A
C220        C225   1.415       .  A
C220        C504   1.481       .  S
C221        C222   1.378       .  A
C221        H226   1.087       .  S
C222        C223   1.412       .  A
C222        C517   1.474       .  S
C223        C224   1.433       .  A
C223        H227   1.080       .  S
C224        C225   1.434       .  A
C224        C273   1.541       .  S
C225        H228   1.077       .  S
C229        C230   1.381       .  A
C229        C234   1.414       .  A
C229        C497   1.483       .  S
C230        C231   1.379       .  A
C230        H235   1.086       .  S
C231        C232   1.412       .  A
C231        C557   1.476       .  S
C232        C233   1.431       .  A
C232        H236   1.079       .  S
C233        C234   1.430       .  A
C234        H237   1.079       .  S
C238        C239   1.415       .  A
C238        C243   1.380       .  A
C238        C477   1.482       .  S
C239        C240   1.432       .  A
C239        H244   1.079       .  S
C240        C241   1.430       .  A
C241        C242   1.414       .  A
C241        H245   1.079       .  S
C242        C243   1.380       .  A
C242        C484   1.479       .  S
C243        H246   1.086       .  S
O247       Cr265   1.917       .  S
O247        C255   1.244       .  A
O248       Cr265   2.067       .  S
O248        C249   1.279       .  A
C249        C657   1.470       .  S
C249        O250   1.243       .  A
O250       Cr266   1.915       .  S
O251       Cr266   2.066       .  S
O251        C252   1.280       .  A
C252        C737   1.468       .  S
C252        O253   1.242       .  A
O253       Cr267   1.906       .  S
O254       Cr267   2.066       .  S
O254        C255   1.280       .  A
C255        C777   1.464       .  S
O256       Cr265   2.070       .  S
O256        C264   1.280       .  A
O257       Cr265   1.911       .  S
O257        C258   1.245       .  A
C258        C507   1.473       .  S
C258        O259   1.281       .  A
O259       Cr266   2.071       .  S
O260       Cr266   1.915       .  S
O260        C261   1.244       .  A
C261        C494   1.475       .  S
C261        O262   1.279       .  A
O262       Cr267   2.066       .  S
O263       Cr267   1.912       .  S
O263        C264   1.243       .  A
C264        C474   1.468       .  S
Cr265       O268   1.750       .  S
Cr266       O268   1.746       .  S
Cr267       O268   1.746       .  S
C269        C270   1.380       .  A
C269        C274   1.416       .  A
C269        C464   1.484       .  S
C270        C271   1.377       .  A
C270        H275   1.087       .  S
C271        C272   1.411       .  A
C271        C457   1.474       .  S
C272        C273   1.433       .  A
C272        H276   1.080       .  S
C273        C274   1.435       .  A
C274        H277   1.077       .  S
C278        C279   1.379       .  A
C278        C283   1.415       .  A
C278        C434   1.483       .  S
C279        C280   1.378       .  A
C279        H284   1.087       .  S
C280        C281   1.411       .  A
C280        C444   1.476       .  S
C281        C282   1.431       .  A
C281        H285   1.078       .  S
C282        C283   1.432       .  A
C282        C342   1.534       .  S
C283        H286   1.078       .  S
O287       Cr305   2.070       .  S
O287        C295   1.281       .  A
O288       Cr305   1.910       .  S
O288        C289   1.243       .  A
C289        C437   1.474       .  S
C289        O290   1.282       .  A
O290       Cr306   2.074       .  S
O291       Cr306   1.907       .  S
O291        C292   1.243       .  A
C292        C487   1.472       .  S
C292        O293   1.282       .  A
O293       Cr307   2.075       .  S
O294       Cr307   1.914       .  S
O294        C295   1.244       .  A
C295        C467   1.474       .  S
O296       Cr305   1.913       .  S
O296        C304   1.243       .  A
O297       Cr305   2.071       .  S
O297        C298   1.280       .  A
C298        C747   1.469       .  S
C298        O299   1.244       .  A
O299       Cr306   1.911       .  S
O300       Cr306   2.075       .  S
O300        C301   1.281       .  A
C301        C854   1.471       .  S
C301        O302   1.243       .  A
O302       Cr307   1.912       .  S
O303       Cr307   2.071       .  S
O303        C304   1.282       .  A
C304        C674   1.469       .  S
Cr305       O308   1.745       .  S
Cr306       O308   1.744       .  S
Cr307       O308   1.745       .  S
C309        C310   1.413       .  A
C309        C314   1.381       .  A
C309        C424   1.480       .  S
C310        C311   1.430       .  A
C310        H315   1.078       .  S
C311        C312   1.430       .  A
C312        C313   1.415       .  A
C312        H316   1.079       .  S
C313        C314   1.382       .  A
C313        C414   1.482       .  S
C314        H317   1.086       .  S
O318       Cr336   1.904       .  S
O318        C326   1.243       .  A
O319       Cr336   2.065       .  S
O319        C320   1.277       .  A
C320        C447   1.464       .  S
C320        O321   1.241       .  A
O321       Cr337   1.915       .  S
O322       Cr337   2.061       .  S
O322        C323   1.278       .  A
C323        C417   1.472       .  S
C323        O324   1.244       .  A
O324       Cr338   1.914       .  S
O325       Cr338   2.081       .  S
O325        C326   1.284       .  A
C326        C577   1.472       .  S
O327       Cr336   2.063       .  S
O327        C335   1.277       .  A
O328       Cr336   1.909       .  S
O328        C329   1.243       .  A
C329        C807   1.466       .  S
C329        O330   1.283       .  A
O330       Cr337   2.076       .  S
O331       Cr337   1.906       .  S
O331        C332   1.244       .  A
C332        C687   1.485       .  S
C332        O333   1.284       .  A
O333       Cr338   2.077       .  S
O334       Cr338   1.920       .  S
O334        C335   1.243       .  A
C335        C754   1.463       .  S
Cr336       O339   1.750       .  S
Cr337       O339   1.743       .  S
Cr338       O339   1.745       .  S
C340        C341   1.413       .  A
C340        C345   1.381       .  A
C340        C404   1.482       .  S
C341        C342   1.430       .  A
C341        H346   1.078       .  S
C342        C343   1.430       .  A
C343        C344   1.414       .  A
C343        H347   1.078       .  S
C344        C345   1.381       .  A
C344        C394   1.481       .  S
C345        H348   1.086       .  S
O349       Cr367   1.923       .  S
O349        C357   1.244       .  A
O350       Cr367   2.064       .  S
O350        C351   1.280       .  A
C351        C864   1.468       .  S
C351        O352   1.245       .  A
O352       Cr368   1.912       .  S
O353       Cr368   2.065       .  S
O353        C354   1.279       .  A
C354        C634   1.464       .  S
C354        O355   1.243       .  A
O355       Cr369   1.915       .  S
O356       Cr369   2.058       .  S
O356        C357   1.277       .  A
C357        C824   1.466       .  S
O358       Cr367   2.064       .  S
O358        C366   1.280       .  A
O359       Cr367   1.921       .  S
O359        C360   1.244       .  A
C360        C524   1.467       .  S
C360        O361   1.277       .  A
O361       Cr368   2.059       .  S
O362       Cr368   1.915       .  S
O362        C363   1.243       .  A
C363        C454   1.462       .  S
C363        O364   1.279       .  A
O364       Cr369   2.065       .  S
O365       Cr369   1.912       .  S
O365        C366   1.245       .  A
C366        C397   1.468       .  S
Cr367       O370   1.746       .  S
Cr368       O370   1.751       .  S
Cr369       O370   1.750       .  S
O371       Cr389   2.063       .  S
O371        C379   1.279       .  A
O372       Cr389   1.915       .  S
O372        C373   1.243       .  A
C373        C644   1.468       .  S
C373        O374   1.280       .  A
O374       Cr390   2.068       .  S
O375       Cr390   1.911       .  S
O375        C376   1.244       .  A
C376        C764   1.465       .  S
C376        O377   1.281       .  A
O377       Cr391   2.071       .  S
O378       Cr391   1.910       .  S
O378        C379   1.244       .  A
C379        C727   1.464       .  S
O380       Cr389   1.921       .  S
O380        C388   1.246       .  A
O381       Cr389   2.070       .  S
O381        C382   1.280       .  A
C382        C427   1.473       .  S
C382        O383   1.245       .  A
O383       Cr390   1.916       .  S
O384       Cr390   2.070       .  S
O384        C385   1.279       .  A
C385        C614   1.468       .  S
C385        O386   1.243       .  A
O386       Cr391   1.916       .  S
O387       Cr391   2.064       .  S
O387        C388   1.279       .  A
C388        C407   1.473       .  S
Cr389       O392   1.745       .  S
Cr390       O392   1.749       .  S
Cr391       O392   1.746       .  S
C393        C394   1.400       .  A
C393        C398   1.398       .  A
C393        F400   1.358       .  S
C394        C395   1.415       .  A
C395        C396   1.401       .  A
C395        F402   1.358       .  S
C396        C397   1.399       .  A
C396        F401   1.357       .  S
C397        C398   1.412       .  A
C398        F399   1.359       .  S
C403        C404   1.415       .  A
C403        C408   1.402       .  A
C403        F410   1.358       .  S
C404        C405   1.400       .  A
C405        C406   1.396       .  A
C405        F412   1.358       .  S
C406        C407   1.412       .  A
C406        F411   1.359       .  S
C407        C408   1.400       .  A
C408        F409   1.358       .  S
C413        C414   1.398       .  A
C413        C418   1.397       .  A
C413        F420   1.358       .  S
C414        C415   1.416       .  A
C415        C416   1.401       .  A
C415        F422   1.358       .  S
C416        C417   1.399       .  A
C416        F421   1.358       .  S
C417        C418   1.414       .  A
C418        F419   1.359       .  S
C423        C424   1.399       .  A
C423        C428   1.394       .  A
C423        F430   1.358       .  S
C424        C425   1.415       .  A
C425        C426   1.405       .  A
C425        F432   1.358       .  S
C426        C427   1.402       .  A
C426        F431   1.357       .  S
C427        C428   1.411       .  A
C428        F429   1.357       .  S
C433        C434   1.399       .  A
C433        C438   1.396       .  A
C433        F440   1.358       .  S
C434        C435   1.417       .  A
C435        C436   1.402       .  A
C435        F442   1.358       .  S
C436        C437   1.399       .  A
C436        F441   1.357       .  S
C437        C438   1.415       .  A
C438        F439   1.359       .  S
C443        C444   1.400       .  A
C443        C448   1.398       .  A
C443        F450   1.358       .  S
C444        C445   1.413       .  A
C445        C446   1.398       .  A
C445        F452   1.358       .  S
C446        C447   1.399       .  A
C446        F451   1.358       .  S
C447        C448   1.412       .  A
C448        F449   1.359       .  S
C453        C454   1.406       .  A
C453        C458   1.400       .  A
C453        F460   1.358       .  S
C454        C455   1.405       .  A
C455        C456   1.401       .  A
C455        F462   1.358       .  S
C456        C457   1.406       .  A
C456        F461   1.358       .  S
C457        C458   1.406       .  A
C458        F459   1.358       .  S
C463        C464   1.399       .  A
C463        C468   1.397       .  A
C463        F470   1.358       .  S
C464        C465   1.417       .  A
C465        C466   1.403       .  A
C465        F472   1.358       .  S
C466        C467   1.399       .  A
C466        F471   1.357       .  S
C467        C468   1.414       .  A
C468        F469   1.358       .  S
C473        C474   1.413       .  A
C473        C478   1.398       .  A
C473        F480   1.359       .  S
C474        C475   1.398       .  A
C475        C476   1.401       .  A
C475        F482   1.357       .  S
C476        C477   1.417       .  A
C476        F481   1.358       .  S
C477        C478   1.399       .  A
C478        F479   1.358       .  S
C483        C484   1.399       .  A
C483        C488   1.396       .  A
C483        F490   1.358       .  S
C484        C485   1.415       .  A
C485        C486   1.403       .  A
C485        F492   1.358       .  S
C486        C487   1.400       .  A
C486        F491   1.357       .  S
C487        C488   1.414       .  A
C488        F489   1.359       .  S
C493        C494   1.399       .  A
C493        C498   1.402       .  A
C493        F500   1.358       .  S
C494        C495   1.415       .  A
C495        C496   1.396       .  A
C495        F502   1.359       .  S
C496        C497   1.399       .  A
C496        F501   1.358       .  S
C497        C498   1.417       .  A
C498        F499   1.358       .  S
C503        C504   1.416       .  A
C503        C508   1.403       .  A
C503        F510   1.358       .  S
C504        C505   1.399       .  A
C505        C506   1.396       .  A
C505        F512   1.358       .  S
C506        C507   1.413       .  A
C506        F511   1.358       .  S
C507        C508   1.400       .  A
C508        F509   1.357       .  S
C513        C514   1.404       .  A
C513        C518   1.401       .  A
C513        F520   1.358       .  S
C514        C515   1.407       .  A
C515        C516   1.399       .  A
C515        F522   1.358       .  S
C516        C517   1.403       .  A
C516        F521   1.358       .  S
C517        C518   1.409       .  A
C518        F519   1.358       .  S
C523        C524   1.411       .  A
C523        C528   1.399       .  A
C523        F530   1.358       .  S
C524        C525   1.399       .  A
C525        C526   1.399       .  A
C525        F532   1.358       .  S
C526        C527   1.414       .  A
C526        F531   1.358       .  S
C527        C528   1.400       .  A
C528        F529   1.358       .  S
C533        C534   1.400       .  A
C533        C538   1.398       .  A
C533        F540   1.358       .  S
C534        C535   1.415       .  A
C535        C536   1.402       .  A
C535        F542   1.358       .  S
C536        C537   1.399       .  A
C536        F541   1.358       .  S
C537        C538   1.413       .  A
C538        F539   1.359       .  S
C543        C544   1.398       .  A
C543        C548   1.397       .  A
C543        F550   1.358       .  S
C544        C545   1.415       .  A
C545        C546   1.401       .  A
C545        F552   1.358       .  S
C546        C547   1.399       .  A
C546        F551   1.357       .  S
C547        C548   1.413       .  A
C548        F549   1.359       .  S
C553        C554   1.408       .  A
C553        C558   1.400       .  A
C553        F560   1.358       .  S
C554        C555   1.403       .  A
C555        C556   1.401       .  A
C555        F562   1.356       .  S
C556        C557   1.409       .  A
C556        F561   1.358       .  S
C557        C558   1.403       .  A
C558        F559   1.358       .  S
C563        C564   1.398       .  A
C563        C568   1.396       .  A
C563        F570   1.358       .  S
C564        C565   1.418       .  A
C565        C566   1.403       .  A
C565        F572   1.358       .  S
C566        C567   1.400       .  A
C566        F571   1.357       .  S
C567        C568   1.413       .  A
C568        F569   1.354       .  S
C573        C574   1.418       .  A
C573        C578   1.403       .  A
C573        F580   1.358       .  S
C574        C575   1.397       .  A
C575        C576   1.398       .  A
C575        F582   1.358       .  S
C576        C577   1.416       .  A
C576        F581   1.359       .  S
C577        C578   1.398       .  A
C578        F579   1.358       .  S
C583        C584   1.400       .  A
C583        C588   1.395       .  A
C583        F590   1.358       .  S
C584        C585   1.411       .  A
C585        C586   1.404       .  A
C585        F592   1.358       .  S
C586        C587   1.404       .  A
C586        F591   1.358       .  S
C587        C588   1.408       .  A
C588        F589   1.354       .  S
C593        C594   1.413       .  A
C593        C598   1.395       .  A
C593        F600   1.359       .  S
C594        C595   1.400       .  A
C595        C596   1.403       .  A
C595        F602   1.358       .  S
C596        C597   1.416       .  A
C596        F601   1.358       .  S
C597        C598   1.399       .  A
C598        F599   1.358       .  S
C603        C604   1.413       .  A
C603        C608   1.398       .  A
C603        F610   1.358       .  S
C604        C605   1.398       .  A
C605        C606   1.399       .  A
C605        F612   1.358       .  S
C606        C607   1.415       .  A
C606        F611   1.358       .  S
C607        C608   1.400       .  A
C608        F609   1.358       .  S
C613        C614   1.403       .  A
C613        C618   1.403       .  A
C613        F620   1.358       .  S
C614        C615   1.409       .  A
C615        C616   1.396       .  A
C615        F622   1.358       .  S
C616        C617   1.401       .  A
C616        F621   1.358       .  S
C617        C618   1.412       .  A
C618        F619   1.358       .  S
C623        C624   1.416       .  A
C623        C628   1.400       .  A
C623        F630   1.358       .  S
C624        C625   1.398       .  A
C625        C626   1.398       .  A
C625        F632   1.358       .  S
C626        C627   1.413       .  A
C626        F631   1.359       .  S
C627        C628   1.398       .  A
C628        F629   1.358       .  S
C633        C634   1.402       .  A
C633        C638   1.401       .  A
C633        F640   1.358       .  S
C634        C635   1.409       .  A
C635        C636   1.398       .  A
C635        F642   1.358       .  S
C636        C637   1.402       .  A
C636        F641   1.358       .  S
C637        C638   1.410       .  A
C638        F639   1.358       .  S
C643        C644   1.412       .  A
C643        C648   1.399       .  A
C643        F650   1.358       .  S
C644        C645   1.400       .  A
C645        C646   1.400       .  A
C645        F652   1.358       .  S
C646        C647   1.415       .  A
C646        F651   1.358       .  S
C647        C648   1.401       .  A
C648        F649   1.358       .  S
C653        C654   1.400       .  A
C653        C658   1.398       .  A
C653        F660   1.358       .  S
C654        C655   1.416       .  A
C655        C656   1.401       .  A
C655        F662   1.358       .  S
C656        C657   1.399       .  A
C656        F661   1.358       .  S
C657        C658   1.413       .  A
C658        F659   1.359       .  S
C663        C664   1.400       .  A
C663        C668   1.399       .  A
C663        F670   1.358       .  S
C664        C665   1.415       .  A
C665        C666   1.402       .  A
C665        F672   1.358       .  S
C666        C667   1.399       .  A
C666        F671   1.358       .  S
C667        C668   1.414       .  A
C668        F669   1.358       .  S
C673        C674   1.413       .  A
C673        C678   1.399       .  A
C673        F680   1.356       .  S
C674        C675   1.400       .  A
C675        C676   1.401       .  A
C675        F682   1.358       .  S
C676        C677   1.414       .  A
C676        F681   1.358       .  S
C677        C678   1.399       .  A
C678        F679   1.358       .  S
C683        C684   1.396       .  A
C683        C688   1.393       .  A
C683        F690   1.358       .  S
C684        C685   1.423       .  A
C685        C686   1.403       .  A
C685        F692   1.359   1_545  S
C686        C687   1.398       .  A
C686        F691   1.357       .  S
C687        C688   1.420       .  A
C688        F689   1.355       .  S
C693        C694   1.399       .  A
C693        C698   1.399       .  A
C693        F700   1.358       .  S
C694        C695   1.417       .  A
C695        C696   1.398       .  A
C695        F702   1.358       .  S
C696        C697   1.397       .  A
C696        F701   1.358       .  S
C697        C698   1.414       .  A
C698        F699   1.359       .  S
C703        C704   1.401       .  A
C703        C708   1.401       .  A
C703        F710   1.358       .  S
C704        C705   1.411       .  A
C705        C706   1.399       .  A
C705        F712   1.358       .  S
C706        C707   1.401       .  A
C706        F711   1.358       .  S
C707        C708   1.410       .  A
C708        F709   1.358       .  S
C713        C714   1.399       .  A
C713        C718   1.400       .  A
C713        F720   1.358       .  S
C714        C715   1.415       .  A
C715        C716   1.398       .  A
C715        F722   1.358       .  S
C716        C717   1.398       .  A
C716        F721   1.358       .  S
C717        C718   1.413       .  A
C718        F719   1.358       .  S
C723        C724   1.400       .  A
C723        C728   1.399       .  A
C723        F730   1.358       .  S
C724        C725   1.414       .  A
C725        C726   1.398       .  A
C725        F732   1.358   1_455  S
C726        C727   1.398       .  A
C726        F731   1.357       .  S
C727        C728   1.412       .  A
C728        F729   1.358       .  S
C733        C734   1.416       .  A
C733        C738   1.401       .  A
C733        F740   1.358       .  S
C734        C735   1.397       .  A
C735        C736   1.396       .  A
C735        F742   1.358       .  S
C736        C737   1.414       .  A
C736        F741   1.359       .  S
C737        C738   1.398       .  A
C738        F739   1.358       .  S
C743        C744   1.414       .  A
C743        C748   1.404       .  A
C743        F750   1.358       .  S
C744        C745   1.399       .  A
C745        C746   1.393       .  A
C745        F752   1.358       .  S
C746        C747   1.410       .  A
C746        F751   1.355       .  S
C747        C748   1.401       .  A
C748        F749   1.357       .  S
C753        C754   1.407       .  A
C753        C758   1.401       .  A
C753        F760   1.358       .  S
C754        C755   1.403       .  A
C755        C756   1.399       .  A
C755        F762   1.358       .  S
C756        C757   1.408       .  A
C756        F761   1.358       .  S
C757        C758   1.404       .  A
C758        F759   1.358       .  S
C763        C764   1.402       .  A
C763        C768   1.400       .  A
C763        F770   1.358       .  S
C764        C765   1.410       .  A
C765        C766   1.402       .  A
C765        F772   1.358       .  S
C766        C767   1.403       .  A
C766        F771   1.358       .  S
C767        C768   1.411       .  A
C768        F769   1.358       .  S
C773        C774   1.408       .  A
C773        C778   1.400       .  A
C773        F780   1.358       .  S
C774        C775   1.404       .  A
C775        C776   1.401       .  A
C775        F782   1.358       .  S
C776        C777   1.408       .  A
C776        F781   1.358       .  S
C777        C778   1.403       .  A
C778        F779   1.358       .  S
C783        C784   1.400       .  A
C783        C788   1.402       .  A
C783        F790   1.358       .  S
C784        C785   1.412       .  A
C785        C786   1.397       .  A
C785        F792   1.358       .  S
C786        C787   1.400       .  A
C786        F791   1.358       .  S
C787        C788   1.415       .  A
C788        F789   1.358       .  S
C793        C794   1.416       .  A
C793        C798   1.401       .  A
C793        F800   1.358       .  S
C794        C795   1.398       .  A
C795        C796   1.398       .  A
C795        F802   1.358       .  S
C796        C797   1.413       .  A
C796        F801   1.359       .  S
C797        C798   1.398       .  A
C798        F799   1.358       .  S
C803        C804   1.402       .  A
C803        C808   1.395       .  A
C803        F810   1.358       .  S
C804        C805   1.408       .  A
C805        C806   1.404       .  A
C805        F812   1.357       .  S
C806        C807   1.406       .  A
C806        F811   1.358       .  S
C807        C808   1.408       .  A
C808        F809   1.355       .  S
C813        C814   1.401       .  A
C813        C818   1.399       .  A
C813        F820   1.358       .  S
C814        C815   1.412       .  A
C815        C816   1.402       .  A
C815        F822   1.358       .  S
C816        C817   1.401       .  A
C816        F821   1.358       .  S
C817        C818   1.410       .  A
C818        F819   1.358       .  S
C823        C824   1.411       .  A
C823        C828   1.399       .  A
C823        F830   1.358       .  S
C824        C825   1.399       .  A
C825        C826   1.399       .  A
C825        F832   1.358       .  S
C826        C827   1.413       .  A
C826        F831   1.358       .  S
C827        C828   1.401       .  A
C828        F829   1.358       .  S
C833        C834   1.400       .  A
C833        C838   1.403       .  A
C833        F840   1.357       .  S
C834        C835   1.414       .  A
C835        C836   1.395       .  A
C835        F842   1.358       .  S
C836        C837   1.398       .  A
C836        F841   1.358       .  S
C837        C838   1.416       .  A
C838        F839   1.358       .  S
C843        C844   1.412       .  A
C843        C848   1.402       .  A
C843        F850   1.358       .  S
C844        C845   1.401       .  A
C845        C846   1.398       .  A
C845        F852   1.358       .  S
C846        C847   1.410       .  A
C846        F851   1.358       .  S
C847        C848   1.402       .  A
C848        F849   1.358       .  S
C853        C854   1.409       .  A
C853        C858   1.396       .  A
C853        F860   1.354       .  S
C854        C855   1.403       .  A
C855        C856   1.405       .  A
C855        F862   1.358       .  S
C856        C857   1.413       .  A
C856        F861   1.358       .  S
C857        C858   1.400       .  A
C858        F859   1.358       .  S
C863        C864   1.399       .  A
C863        C868   1.401       .  A
C863        F870   1.358       .  S
C864        C865   1.412       .  A
C865        C866   1.398       .  A
C865        F872   1.358       .  S
C866        C867   1.399       .  A
C866        F871   1.358       .  S
C867        C868   1.415       .  A
C868        F869   1.358       .  S
