geometry optimzed in LAMMPS
_audit_creation_date              2020-11-30 
_audit_creation_method            'lammps2cif' 
_symmetry_space_group_name_H-M    'P1' 
_symmetry_Int_Tables_number       1 
_symmetry_cell_setting            triclinic 
loop_ 
_symmetry_equiv_pos_as_xyz 
  x,y,z 
_cell_length_a                    61.10687651 
_cell_length_b                    61.06887519300762 
_cell_length_c                    43.613282380338354 
_cell_angle_alpha                 89.94022927846684 
_cell_angle_beta                  90.07490458836675 
_cell_angle_gamma                 119.89283724265947 
loop_ 
_atom_site_label 
_atom_site_type_symbol 
_atom_site_fract_x 
_atom_site_fract_y 
_atom_site_fract_z 
_atom_site_charge 
N1          N  0.83873238  0.51847674  0.74786622    -0.27000
N2          N  0.82715683  0.50224467  0.72534007    -0.34900
C3          C  0.80378946  0.49884889  0.72206541     0.01300
C4          C  0.80061014  0.51374517  0.74344457     0.07300
C5          C  0.82317395  0.52608686  0.75924691    -0.05800
H6          H  0.78988484  0.48592304  0.70592826     0.08000
H7          H  0.82744251  0.53852166  0.77873652     0.09200
Cu8        Cu  0.84282698  0.48402551  0.70142944     0.44200
Cu9        Cu  0.87360143  0.52685616  0.76509367     0.42000
Cu10       Cu  0.90222477  0.49342138  0.73025063     0.43900
N11         N  0.86223066  0.46767866  0.68193804    -0.34400
N12         N  0.88389279  0.47097791  0.69266445    -0.28700
C13         C  0.89172960  0.45824749  0.67489492    -0.04800
C14         C  0.87409865  0.44617099  0.65183479     0.07400
C15         C  0.85574522  0.45281977  0.65697897     0.01200
H16         H  0.90911605  0.45796895  0.67845103     0.08900
H17         H  0.83928071  0.44798296  0.64310381     0.08000
N18         N  0.91731711  0.51728937  0.76760780    -0.35900
N19         N  0.90685009  0.52943551  0.78043064    -0.28100
C20         C  0.92151572  0.54358347  0.80370398    -0.03300
C21         C  0.94226333  0.54020572  0.80561268     0.05300
C22         C  0.93899681  0.52350680  0.78224979     0.03400
H23         H  0.91773930  0.55606787  0.81745635     0.08500
H24         H  0.95159051  0.51654205  0.77613241     0.07300
N25         N  0.84727542  0.29373851  0.43534210    -0.27000
N26         N  0.83598782  0.29715127  0.45916955    -0.34900
C27         C  0.81248417  0.27740875  0.46161762     0.01300
C28         C  0.80849579  0.26067170  0.43804434     0.07300
C29         C  0.83108032  0.27161904  0.42186265    -0.05800
H30         H  0.79910933  0.27558095  0.47908096     0.08000
H31         H  0.83556973  0.26399502  0.40202242     0.09200
Cu32       Cu  0.85259646  0.32869932  0.48696301     0.44200
Cu33       Cu  0.88408949  0.32006387  0.42270717     0.42000
Cu34       Cu  0.91350492  0.38007049  0.46539520     0.43900
N35         N  0.87154058  0.36186134  0.51163321    -0.34400
N36         N  0.89361125  0.38109710  0.50360874    -0.28700
C37         C  0.90044415  0.39969154  0.52439493    -0.04800
C38         C  0.88189885  0.39159081  0.54692706     0.07400
C39         C  0.86383588  0.36752668  0.53772868     0.01200
H40         H  0.91748400  0.41784009  0.52276441     0.08900
H41         H  0.84638458  0.35481147  0.54928490     0.08000
N42         N  0.93008972  0.37237368  0.42830609    -0.35900
N43         N  0.91986382  0.35053385  0.41355592    -0.28100
C44         C  0.93542088  0.35215596  0.39072487    -0.03300
C45         C  0.95638431  0.37615908  0.39095773     0.05300
C46         C  0.95225822  0.38846141  0.41500441     0.03400
H47         H  0.93113953  0.33735864  0.37418741     0.08500
H48         H  0.96428137  0.40789473  0.42194740     0.07300
N49         N  0.46237794  0.13215145  0.10914214    -0.27000
N50         N  0.47912614  0.14294494  0.13134248    -0.34900
C51         C  0.48463606  0.16706740  0.13436102     0.01300
C52         C  0.47041182  0.17158937  0.11329965     0.07300
C53         C  0.45652062  0.14904875  0.09765025    -0.05800
H54         H  0.49809662  0.18037173  0.15058692     0.08000
H55         H  0.44378844  0.14545827  0.07861440     0.09200
Cu56       Cu  0.49359448  0.12421052  0.15629352     0.44200
Cu57       Cu  0.44996996  0.09550690  0.09450238     0.42000
Cu58       Cu  0.47070691  0.05821870  0.13860695     0.43900
N59         N  0.50374098  0.10145196  0.18042695    -0.34400
N60         N  0.49512376  0.07728777  0.17459161    -0.28700
C61         C  0.50501270  0.06815493  0.19512688    -0.04800
C62         C  0.52043999  0.08747442  0.21502607     0.07400
C63         C  0.51936388  0.10836263  0.20463459     0.01200
H64         H  0.50107938  0.04881747  0.19566166     0.08900
H65         H  0.52946836  0.12739371  0.21355179     0.08000
N66         N  0.44847631  0.04533649  0.09944068    -0.35900
N67         N  0.44147371  0.05911464  0.08319479    -0.28100
C68         C  0.42855305  0.04587377  0.05844278    -0.03300
C69         C  0.42701613  0.02250217  0.05927128     0.05300
C70         C  0.43995842  0.02285961  0.08554326     0.03400
H71         H  0.42087902  0.05280276  0.04104357     0.08500
H72         H  0.44364670  0.00821344  0.09347932     0.07300
N73         N  0.68227094  0.12761562  0.42319585    -0.27000
N74         N  0.67752949  0.13839013  0.39980706    -0.34900
C75         C  0.69683263  0.16213313  0.39656507     0.01300
C76         C  0.71452503  0.16666848  0.41920882     0.07300
C77         C  0.70468836  0.14422389  0.43551258    -0.05800
H78         H  0.69775102  0.17524846  0.37922107     0.08000
H79         H  0.71325328  0.14008513  0.45471881     0.09200
Cu80       Cu  0.64502857  0.12018337  0.37343151     0.44200
Cu81       Cu  0.65767613  0.09100999  0.43751661     0.42000
Cu82       Cu  0.60145426  0.05483409  0.39021032     0.43900
N83         N  0.61260449  0.09796359  0.34818757    -0.34400
N84         N  0.59712976  0.07368995  0.35346887    -0.28700
C85         C  0.57837401  0.06470092  0.33264453    -0.04800
C86         C  0.58225458  0.08438792  0.31354515     0.07400
C87         C  0.60394927  0.10519499  0.32415479     0.01200
H88         H  0.56269778  0.04553434  0.33208770     0.08900
H89         H  0.61277884  0.12420303  0.31509240     0.08000
N90         N  0.60858374  0.04195505  0.43068687    -0.35900
N91         N  0.62880073  0.05497442  0.44800461    -0.28100
C92         C  0.62677396  0.04138400  0.47320283    -0.03300
C93         C  0.60432589  0.01867216  0.47146391     0.05300
C94         C  0.59321538  0.01979950  0.44433071     0.03400
H95         H  0.64058711  0.04762648  0.49147867     0.08500
H96         H  0.57495059  0.00590227  0.43549423     0.07300
N97         N  0.67679043  0.52272823  0.76762506    -0.27000
N98         N  0.67205594  0.50612261  0.78966806    -0.34900
C99         C  0.69124784  0.50140990  0.79168399     0.01300
C100        C  0.70916049  0.51598968  0.77005249     0.07300
C101        C  0.69933005  0.52922332  0.75507351    -0.05800
H102        H  0.69215648  0.48844078  0.80786145     0.08000
H103        H  0.70760004  0.54209030  0.73597424     0.09200
Cu104      Cu  0.64010336  0.49134387  0.81644016     0.44200
Cu105      Cu  0.65127368  0.53428029  0.75550226     0.42000
Cu106      Cu  0.59438092  0.51145633  0.80353015     0.43900
N107        N  0.60929415  0.48122416  0.84421302    -0.34400
N108        N  0.59268647  0.48883613  0.84036252    -0.28700
C109        C  0.57528321  0.47876030  0.86279472    -0.04800
C110        C  0.58138454  0.46422556  0.88172697     0.07400
C111        C  0.60295489  0.46612931  0.86885330     0.01200
H112        H  0.55924372  0.48160761  0.86497339     0.08900
H113        H  0.61298750  0.45659686  0.87602645     0.08000
N114        N  0.60080415  0.53200783  0.76303174    -0.35900
N115        N  0.62132134  0.54018112  0.74599426    -0.28100
C116        C  0.61910636  0.55192254  0.72110697    -0.03300
C117        C  0.59604122  0.55103839  0.72220332     0.05300
C118        C  0.58502445  0.53840069  0.74929659     0.03400
H119        H  0.63308291  0.56000799  0.70310245     0.08500
H120        H  0.56696517  0.53425376  0.75857934     0.07300
N121        N  0.46925587  0.29964423  0.09237490    -0.27000
N122        N  0.48551187  0.30475133  0.06976677    -0.34900
C123        C  0.49056482  0.28572987  0.06736673     0.01300
C124        C  0.47675575  0.26780440  0.08948401     0.07300
C125        C  0.46337190  0.27720019  0.10474525    -0.05800
H126        H  0.50291460  0.28476495  0.05033634     0.08000
H127        H  0.45038151  0.26841468  0.12360287     0.09200
Cu128      Cu  0.49908580  0.33681936  0.04238769     0.44200
Cu129      Cu  0.45561282  0.32318771  0.10572327     0.42000
Cu130      Cu  0.47377660  0.37819913  0.05879832     0.43900
N131        N  0.50755995  0.36891041  0.01693553    -0.34400
N132        N  0.49756031  0.38339790  0.02228140    -0.28700
C133        C  0.50615342  0.40198737  0.00126978    -0.04800
C134        C  0.52247206  0.39916453  0.98192602     0.07400
C135        C  0.52309537  0.37815256  0.99262620     0.01200
H136        H  0.50135298  0.41680945  0.00059026     0.08900
H137        H  0.53390099  0.37007899  0.98329455     0.08000
N138        N  0.45164542  0.36999381  0.09775388    -0.35900
N139        N  0.44490959  0.34982380  0.11498558    -0.28100
C140        C  0.43078902  0.35008209  0.13847738    -0.03300
C141        C  0.42867447  0.37161719  0.13610169     0.05300
C142        C  0.44206824  0.38365028  0.10984580     0.03400
H143        H  0.42240731  0.33539681  0.15565546     0.08500
H144        H  0.44497148  0.40130017  0.10040160     0.07300
N145        N  0.14182286  0.66820923  0.92452758    -0.27000
N146        N  0.15274902  0.66467166  0.94871128    -0.34900
C147        C  0.17569322  0.68503666  0.95265365     0.01300
C148        C  0.17945550  0.70249865  0.93003480     0.07300
C149        C  0.15763430  0.69101955  0.91241895    -0.05800
H150        H  0.18872882  0.68673363  0.97052875     0.08000
H151        H  0.15338098  0.69884786  0.89252527     0.09200
Cu152      Cu  0.13589624  0.63299067  0.97634310     0.44200
Cu153      Cu  0.10552380  0.64212679  0.91009910     0.42000
Cu154      Cu  0.06997298  0.59057023  0.96373622     0.43900
N155        N  0.11437068  0.60178664  0.00351205    -0.34400
N156        N  0.08992885  0.58660026  0.99945221    -0.28700
C157        C  0.08120240  0.56879026  0.02139632    -0.04800
C158        C  0.10123755  0.57274202  0.04007599     0.07400
C159        C  0.12193321  0.59398901  0.02804409     0.01200
H160        H  0.06157957  0.55448434  0.02380220     0.08900
H161        H  0.14113971  0.60318306  0.03646674     0.08000
N162        N  0.05525350  0.59578308  0.92354759    -0.35900
N163        N  0.06824781  0.61390926  0.90342919    -0.28100
C164        C  0.05343840  0.61066274  0.87901060    -0.03300
C165        C  0.03005917  0.58952035  0.88414575     0.05300
C166        C  0.03186426  0.58071190  0.91266327     0.03400
H167        H  0.05928027  0.62278381  0.85903832     0.08500
H168        H  0.01749222  0.56404616  0.92423158     0.07300
N169        N  0.14449804  0.45427032  0.24821984    -0.27000
N170        N  0.15578604  0.47186364  0.22702209    -0.34900
C171        C  0.17950619  0.47646506  0.22318196     0.01300
C172        C  0.18344047  0.46092031  0.24275442     0.07300
C173        C  0.16082869  0.44714953  0.25841467    -0.05800
H174        H  0.19292257  0.49015400  0.20724672     0.08000
H175        H  0.15673411  0.43351081  0.27649967     0.09200
Cu176      Cu  0.13861879  0.48885960  0.20411940     0.44200
Cu177      Cu  0.10769614  0.44177943  0.26277917     0.42000
Cu178      Cu  0.07303401  0.46681071  0.22161801     0.43900
N179        N  0.11694636  0.50094827  0.18135464    -0.34400
N180        N  0.09271104  0.49221907  0.18681553    -0.28700
C181        C  0.08383560  0.50251351  0.16653704    -0.04800
C182        C  0.10357570  0.51874292  0.14784864     0.07400
C183        C  0.12424632  0.51724713  0.15778640     0.01200
H184        H  0.06446899  0.49842253  0.16540703     0.08900
H185        H  0.14298110  0.52660054  0.14793095     0.08000
N186        N  0.05901671  0.44331186  0.25954236    -0.35900
N187        N  0.07152759  0.43413497  0.27449176    -0.28100
C188        C  0.05763460  0.42063283  0.29862931    -0.03300
C189        C  0.03544102  0.42158705  0.29917568     0.05300
C190        C  0.03691790  0.43594900  0.27379823     0.03400
H191        H  0.06363184  0.41147907  0.31517932     0.08500
H192        H  0.02303922  0.44083877  0.26619969     0.07300
N193        N  0.51758380  0.66152274  0.58361453    -0.27000
N194        N  0.49711845  0.65269201  0.56635902    -0.34900
C195        C  0.49031588  0.67041295  0.56381680     0.01300
C196        C  0.50750697  0.69152262  0.57994541     0.07300
C197        C  0.52442598  0.68515790  0.59241142    -0.05800
H198        H  0.47443664  0.66832937  0.55049499     0.08000
H199        H  0.54041598  0.69672745  0.60701742     0.09200
Cu200      Cu  0.48091506  0.61821999  0.54427657     0.44200
Cu201      Cu  0.53527305  0.64114112  0.59443733     0.42000
Cu202      Cu  0.51480314  0.58422252  0.54996164     0.43900
N203        N  0.47379210  0.58800071  0.51651455    -0.34400
N204        N  0.48724190  0.57648349  0.51715425    -0.28700
C205        C  0.47935076  0.55929908  0.49443146    -0.04800
C206        C  0.45972675  0.55981489  0.47920893     0.07400
C207        C  0.45678332  0.57827933  0.49373381     0.01200
H208        H  0.48709914  0.54714628  0.48959158     0.08900
H209        H  0.44373431  0.58469765  0.48763946     0.08000
N210        N  0.53808799  0.59358672  0.58815890    -0.35900
N211        N  0.54614183  0.61472950  0.60391565    -0.28100
C212        C  0.55941397  0.61431972  0.62832137    -0.03300
C213        C  0.55948946  0.59173385  0.62802596     0.05300
C214        C  0.54569430  0.57898550  0.60240307     0.03400
H215        H  0.56709649  0.62868077  0.64595687     0.08500
H216        H  0.54081213  0.56013317  0.59523453     0.07300
N217        N  0.30965871  0.45448640  0.25512907    -0.27000
N218        N  0.31414862  0.46946415  0.27902036    -0.34900
C219        C  0.29545021  0.47486689  0.28164816     0.01300
C220        C  0.27823491  0.46254963  0.25846376     0.07300
C221        C  0.28768439  0.44965370  0.24215017    -0.05800
H222        H  0.29412920  0.48634221  0.29964303     0.08000
H223        H  0.27922133  0.43765760  0.22237306     0.09200
Cu224      Cu  0.34440857  0.48061044  0.30839350     0.44200
Cu225      Cu  0.33367587  0.44124602  0.24191003     0.42000
Cu226      Cu  0.38688521  0.45712955  0.29311606     0.43900
N227        N  0.37524156  0.48876183  0.33558677    -0.34400
N228        N  0.39102039  0.48036361  0.33002579    -0.28700
C229        C  0.40922501  0.48946669  0.35156853    -0.04800
C230        C  0.40465833  0.50435840  0.37160248     0.07400
C231        C  0.38282686  0.50326128  0.36084291     0.01200
H232        H  0.42441692  0.48524217  0.35273671     0.08900
H233        H  0.37330751  0.51260700  0.37042831     0.08000
N234        N  0.37946073  0.43567175  0.25351098    -0.35900
N235        N  0.36047174  0.43026977  0.23463253    -0.28100
C236        C  0.36177109  0.41703377  0.21073448    -0.03300
C237        C  0.38262127  0.41399231  0.21468887     0.05300
C238        C  0.39321506  0.42590053  0.24219628     0.03400
H239        H  0.34838877  0.41004577  0.19199735     0.08500
H240        H  0.41013296  0.42791650  0.25283412     0.07300
N241        N  0.51675245  0.82475078  0.59826985    -0.27000
N242        N  0.49961013  0.81362236  0.61995973    -0.34900
C243        C  0.49251041  0.78896826  0.62077810     0.01300
C244        C  0.50572242  0.78430998  0.59838554     0.07300
C245        C  0.52103761  0.80749831  0.58470605    -0.05800
H246        H  0.47942726  0.77568528  0.63729225     0.08000
H247        H  0.53451938  0.81161199  0.56645028     0.09200
Cu248      Cu  0.48767294  0.83262885  0.64863771     0.44200
Cu249      Cu  0.53398812  0.86290515  0.58871160     0.42000
Cu250      Cu  0.51851602  0.90022812  0.63930049     0.43900
N251        N  0.48046217  0.85604390  0.67598583    -0.34400
N252        N  0.49258970  0.88091114  0.67328705    -0.28700
C253        C  0.48404639  0.89069885  0.69456247    -0.04800
C254        C  0.46541032  0.87099276  0.71112881     0.07400
C255        C  0.46357170  0.84927785  0.69884406     0.01200
H256        H  0.49037734  0.91059863  0.69712657     0.08900
H257        H  0.45092706  0.83002554  0.70597926     0.08000
N258        N  0.54070044  0.91442483  0.60080454    -0.35900
N259        N  0.54652748  0.90087404  0.58251071    -0.28100
C260        C  0.55979686  0.91520422  0.55864725    -0.03300
C261        C  0.56245406  0.93895761  0.56202982     0.05300
C262        C  0.54995224  0.93769451  0.58899198     0.03400
H263        H  0.56637575  0.90853931  0.53975971     0.08500
H264        H  0.54656849  0.95206210  0.59857206     0.07300
N265        N  0.30252335  0.83754489  0.91384859    -0.27000
N266        N  0.30712157  0.82746578  0.88966165    -0.34900
C267        C  0.28770472  0.80402894  0.88521810     0.01300
C268        C  0.26971617  0.79896633  0.90752871     0.07300
C269        C  0.27988369  0.82063006  0.92546846    -0.05800
H270        H  0.28728298  0.79132080  0.86767437     0.08000
H271        H  0.27156922  0.82375697  0.94569316     0.09200
Cu272      Cu  0.33989713  0.84519890  0.86432629     0.44200
Cu273      Cu  0.32820444  0.87342058  0.93022477     0.42000
Cu274      Cu  0.38628558  0.90825016  0.88497871     0.43900
N275        N  0.37381307  0.86554406  0.84174677    -0.34400
N276        N  0.39092715  0.88892310  0.84892541    -0.28700
C277        C  0.41083464  0.89666230  0.83004568    -0.04800
C278        C  0.40602148  0.87703221  0.81016437     0.07400
C279        C  0.38228148  0.85770673  0.81822485     0.01200
H280        H  0.42733700  0.91529870  0.83059515     0.08900
H281        H  0.37196476  0.83914272  0.80797132     0.08000
N282        N  0.37869076  0.92164567  0.92483203    -0.35900
N283        N  0.35801888  0.90906880  0.94153734    -0.28100
C284        C  0.36015278  0.92271226  0.96674296    -0.03300
C285        C  0.38312374  0.94501930  0.96568881     0.05300
C286        C  0.39438586  0.94355624  0.93885630     0.03400
H287        H  0.34609659  0.91672844  0.98466112     0.08500
H288        H  0.41305452  0.95694581  0.93062886     0.07300
C289        C  0.45017564  0.87283094  0.73601203     0.00100
C290        C  0.46242799  0.88721134  0.76201770    -0.11800
C291        C  0.44859034  0.88890955  0.78656781     0.02300
C292        C  0.42192714  0.87643864  0.78488940     0.00000
C293        C  0.40982856  0.86238521  0.75848494    -0.11700
C294        C  0.42367191  0.86048778  0.73418759     0.02200
H295        H  0.48285491  0.89660359  0.76345798     0.15200
H296        H  0.38944244  0.85304942  0.75659780     0.15200
C297        C  0.41033323  0.84667991  0.70709624     0.36800
C298        C  0.46225681  0.90237292  0.81364764     0.36700
N299        N  0.39966454  0.83575469  0.68530884    -0.43500
N300        N  0.47337614  0.91312739  0.83530060    -0.43500
C301        C  0.50734500  0.71549317  0.58346869     0.00100
C302        C  0.48427223  0.71452975  0.58895241    -0.11800
C303        C  0.48318785  0.73664091  0.59351847     0.02300
C304        C  0.50556534  0.76036966  0.59241188     0.00000
C305        C  0.52851943  0.76133525  0.58580301    -0.11700
C306        C  0.52960570  0.73920775  0.58140531     0.02200
H307        H  0.46703174  0.69637956  0.59011855     0.15200
H308        H  0.54579261  0.77943962  0.58455306     0.15200
C309        C  0.55362650  0.74146305  0.57371195     0.36800
C310        C  0.45875731  0.73435183  0.59827877     0.36700
N311        N  0.57287599  0.74330636  0.56745585    -0.43500
N312        N  0.43910607  0.73237113  0.60205277    -0.43500
C313        C  0.44549253  0.54468375  0.45234416     0.00100
C314        C  0.45878088  0.54400945  0.42650418    -0.11800
C315        C  0.44596219  0.53116537  0.39986405     0.02300
C316        C  0.41928063  0.51811957  0.39915315     0.00000
C317        C  0.40606095  0.51861005  0.42522467    -0.11700
C318        C  0.41888340  0.53173623  0.45164373     0.02200
H319        H  0.47925432  0.55430929  0.42676584     0.15200
H320        H  0.38559146  0.50851334  0.42507517     0.15200
C321        C  0.40429057  0.53092126  0.47808641     0.36800
C322        C  0.46068017  0.53319951  0.37304048     0.36700
N323        N  0.39262808  0.53022145  0.49932904    -0.43500
N324        N  0.47249038  0.53501969  0.35147401    -0.43500
C325        C  0.25417982  0.46222963  0.25356471     0.00100
C326        C  0.23152584  0.43906708  0.25400480    -0.11800
C327        C  0.20820338  0.43811341  0.25113535     0.02300
C328        C  0.20741667  0.46067417  0.24692402     0.00000
C329        C  0.23021898  0.48378404  0.24594652    -0.11700
C330        C  0.25343862  0.48474946  0.24956512     0.02200
H331        H  0.23205221  0.42171727  0.25718087     0.15200
H332        H  0.22990981  0.50123925  0.24274874     0.15200
C333        C  0.27628094  0.50901885  0.24830379     0.36800
C334        C  0.18553703  0.41370931  0.25182287     0.36700
N335        N  0.29458762  0.52846113  0.24726496    -0.43500
N336        N  0.16741939  0.39409727  0.25252241    -0.43500
C337        C  0.20216660  0.72764112  0.92491813     0.00100
C338        C  0.20938995  0.73599588  0.89467584    -0.11800
C339        C  0.23099346  0.75921141  0.88842354     0.02300
C340        C  0.24595677  0.77474384  0.91280255     0.00000
C341        C  0.23834552  0.76672735  0.94305768    -0.11700
C342        C  0.21676554  0.74347413  0.94931661     0.02200
H343        H  0.19828513  0.72418678  0.87572713     0.15200
H344        H  0.24952259  0.77849482  0.96199270     0.15200
C345        C  0.20976159  0.73691682  0.98101341     0.36800
C346        C  0.23673765  0.76682972  0.85675439     0.36700
N347        N  0.20430384  0.73182246  0.00649185    -0.43500
N348        N  0.24120711  0.77279569  0.83131034    -0.43500
C349        C  0.10092277  0.55843399  0.06781026     0.00100
C350        C  0.11857482  0.57142890  0.09119789    -0.11800
C351        C  0.11956436  0.55891606  0.11757386     0.02300
C352        C  0.10246593  0.53292340  0.12112909     0.00000
C353        C  0.08456889  0.51990982  0.09819899    -0.11700
C354        C  0.08384450  0.53225464  0.07147901     0.02200
H355        H  0.13157364  0.59153718  0.08908859     0.15200
H356        H  0.07166171  0.49979331  0.10072389     0.15200
C357        C  0.06635108  0.51710699  0.04774946     0.36800
C358        C  0.13773412  0.57331622  0.14111838     0.36700
N359        N  0.05228553  0.50472595  0.02887520    -0.43500
N360        N  0.15223071  0.58484017  0.16004583    -0.43500
C361        C  0.41518163  0.38043443  0.15661166     0.00100
C362        C  0.40424929  0.39378005  0.14355316    -0.11800
C363        C  0.39293471  0.40425301  0.16177806     0.02300
C364        C  0.39239977  0.40152602  0.19398522     0.00000
C365        C  0.40279306  0.38769839  0.20703653    -0.11700
C366        C  0.41403305  0.37712345  0.18879857     0.02200
H367        H  0.40482305  0.39637338  0.11891727     0.15200
H368        H  0.40244786  0.38542416  0.23172130     0.15200
C369        C  0.42539248  0.36428204  0.20411838     0.36800
C370        C  0.38348525  0.41896209  0.14676556     0.36700
N371        N  0.43442262  0.35401058  0.21664037    -0.43500
N372        N  0.37599313  0.43075273  0.13454131    -0.43500
C373        C  0.58591806  0.56147999  0.69889277     0.00100
C374        C  0.60291217  0.58392875  0.68364822    -0.11800
C375        C  0.59463341  0.59425993  0.66080089     0.02300
C376        C  0.56899822  0.58178218  0.65229696     0.00000
C377        C  0.55197115  0.55936794  0.66727499    -0.11700
C378        C  0.56007487  0.54928619  0.69063848     0.02200
H379        H  0.62276048  0.59357975  0.68972930     0.15200
H380        H  0.53218870  0.54979831  0.66082015     0.15200
C381        C  0.54148830  0.52601845  0.70480850     0.36800
C382        C  0.61288785  0.61724088  0.64573389     0.36700
N383        N  0.52636804  0.50742599  0.71609571    -0.43500
N384        N  0.62748219  0.63565122  0.63361526    -0.43500
C385        C  0.56677456  0.44828482  0.90825678     0.00100
C386        C  0.54038988  0.43763576  0.90837769    -0.11800
C387        C  0.52562868  0.42158682  0.93209332     0.02300
C388        C  0.53722361  0.41587298  0.95634678     0.00000
C389        C  0.56349214  0.42648688  0.95646111    -0.11700
C390        C  0.57835418  0.44279123  0.93300656     0.02200
H391        H  0.53111230  0.44130424  0.88948161     0.15200
H392        H  0.57249174  0.42239911  0.97534595     0.15200
C393        C  0.60540697  0.45425452  0.93587054     0.36800
C394        C  0.49853029  0.41016794  0.93019960     0.36700
N395        N  0.62706469  0.46331551  0.93842839    -0.43500
N396        N  0.47680136  0.40089393  0.92856710    -0.43500
C397        C  0.57352428  0.95984292  0.53947814     0.00100
C398        C  0.57123858  0.95368609  0.50819759    -0.11800
C399        C  0.58119917  0.97246581  0.48574211     0.02300
C400        C  0.59385219  0.99814141  0.49441989     0.00000
C401        C  0.59646268  0.00438980  0.52568486    -0.11700
C402        C  0.58633416  0.98555736  0.54821194     0.02200
H403        H  0.56140734  0.93405732  0.50112269     0.15200
H404        H  0.60620078  0.02407617  0.53255093     0.15200
C405        C  0.59008243  0.99327250  0.57996300     0.36800
C406        C  0.57894627  0.96471430  0.45408455     0.36700
N407        N  0.59307065  0.99956210  0.60537623    -0.43500
N408        N  0.57709693  0.95840239  0.42875032    -0.43500
C409        C  0.41545366  0.00235075  0.03578633     0.00100
C410        C  0.41888065  0.00926066  0.00471847    -0.11800
C411        C  0.40844731  0.99101526  0.98156591     0.02300
C412        C  0.39411059  0.96514317  0.98934014     0.00000
C413        C  0.39023683  0.95827400  0.02045206    -0.11700
C414        C  0.40077351  0.97655375  0.04361211     0.02200
H415        H  0.42990222  0.02904538  0.99845698     0.15200
H416        H  0.37910142  0.93851112  0.02674106     0.15200
C417        C  0.39523201  0.96839141  0.07512982     0.36800
C418        C  0.41189426  0.99956598  0.95014316     0.36700
N419        N  0.39067295  0.96183235  0.10037942    -0.43500
N420        N  0.41466955  0.00654252  0.92500796    -0.43500
C421        C  0.47161023  0.19598190  0.10714444     0.00100
C422        C  0.49534141  0.21771235  0.10364370    -0.11800
C423        C  0.49747498  0.24121090  0.09742134     0.02300
C424        C  0.47553911  0.24330330  0.09514274     0.00000
C425        C  0.45181496  0.22162410  0.09920793    -0.11700
C426        C  0.44967494  0.19804774  0.10491886     0.02200
H427        H  0.51228267  0.21628049  0.10554474     0.15200
H428        H  0.43487546  0.22309415  0.09776989     0.15200
C429        C  0.42485630  0.17653232  0.10975253     0.36800
C430        C  0.52241156  0.26298995  0.09482454     0.36700
N431        N  0.40495455  0.15933424  0.11374285    -0.43500
N432        N  0.54243944  0.28040651  0.09282792    -0.43500
C433        C  0.56574725  0.08409123  0.28872015     0.00100
C434        C  0.55577760  0.10027247  0.29094510    -0.11800
C435        C  0.54042536  0.10118797  0.26776304     0.02300
C436        C  0.53542697  0.08617537  0.24111750     0.00000
C437        C  0.54521665  0.06968282  0.23921189    -0.11700
C438        C  0.56017870  0.06845669  0.26279083     0.02200
H439        H  0.55970267  0.11197969  0.31119073     0.15200
H440        H  0.54166101  0.05809575  0.21895810     0.15200
C441        C  0.57055568  0.05191814  0.25925011     0.36800
C442        C  0.52921123  0.11682487  0.27284215     0.36700
N443        N  0.57894140  0.03872467  0.25637602    -0.43500
N444        N  0.52022847  0.12933931  0.27716293    -0.43500
C445        C  0.97691219  0.38748768  0.36785525     0.00100
C446        C  0.98390937  0.41153073  0.35624640    -0.11800
C447        C  0.00255044  0.42283908  0.33365710     0.02300
C448        C  0.01509022  0.41023404  0.32259833     0.00000
C449        C  0.00842738  0.38636497  0.33469262    -0.11700
C450        C  0.98936825  0.37483327  0.35684410     0.02200
H451        H  0.97445132  0.42140889  0.36451750     0.15200
H452        H  0.01794461  0.37651456  0.32653874     0.15200
C453        C  0.98354069  0.35037717  0.36848855     0.36800
C454        C  0.00879595  0.44768989  0.32307369     0.36700
N455        N  0.97893538  0.33076190  0.37771833    -0.43500
N456        N  0.01358144  0.46756348  0.31463577    -0.43500
C457        C  0.73877254  0.19043436  0.42441585     0.00100
C458        C  0.75260819  0.20476867  0.39896478    -0.11800
C459        C  0.77543627  0.22750317  0.40267736     0.02300
C460        C  0.78497059  0.23627120  0.43242016     0.00000
C461        C  0.77100557  0.22202039  0.45783367    -0.11700
C462        C  0.74809747  0.19946098  0.45414972     0.02200
H463        H  0.74551269  0.19825531  0.37602431     0.15200
H464        H  0.77788583  0.22866343  0.48080804     0.15200
C465        C  0.73389751  0.18696023  0.48136427     0.36800
C466        C  0.78776581  0.24206869  0.37562256     0.36700
N467        N  0.72251300  0.17711716  0.50324332    -0.43500
N468        N  0.79748502  0.25374093  0.35386386    -0.43500
C469        C  0.96444519  0.55325121  0.82612654     0.00100
C470        C  0.98850424  0.56110647  0.81394245    -0.11800
C471        C  0.01015540  0.57341228  0.83220772     0.02300
C472        C  0.00793547  0.57783959  0.86347961     0.00000
C473        C  0.98389577  0.56982082  0.87579076    -0.11700
C474        C  0.96223276  0.55777551  0.85743007     0.02200
H475        H  0.99044636  0.55771107  0.78997723     0.15200
H476        H  0.98203997  0.57295247  0.89987884     0.15200
C477        C  0.93801793  0.54932826  0.87172381     0.36800
C478        C  0.03421732  0.58013636  0.81857127     0.36700
N479        N  0.91867745  0.54261701  0.88333813    -0.43500
N480        N  0.05347221  0.58546053  0.80759266    -0.43500
C481        C  0.77720645  0.51415626  0.75049287     0.00100
C482        C  0.77783233  0.53740958  0.75170570    -0.11800
C483        C  0.75590974  0.53851054  0.75798284     0.02300
C484        C  0.73291740  0.51600474  0.76346632     0.00000
C485        C  0.73256186  0.49284121  0.76322675    -0.11700
C486        C  0.75440170  0.49173889  0.75673868     0.02200
H487        H  0.79547059  0.55473129  0.74756392     0.15200
H488        H  0.71509497  0.47548514  0.76790214     0.15200
C489        C  0.75319976  0.46752765  0.75800715     0.36800
C490        C  0.75778593  0.56298119  0.76006352     0.36700
N491        N  0.75235461  0.44818697  0.75917204    -0.43500
N492        N  0.75929517  0.58259456  0.76186652    -0.43500
C493        C  0.87575945  0.43120118  0.62593099     0.00100
C494        C  0.89966383  0.43709850  0.61481768    -0.11800
C495        C  0.90227303  0.42421227  0.58975532     0.02300
C496        C  0.88058031  0.40539680  0.57445815     0.00000
C497        C  0.85669963  0.39899215  0.58626663    -0.11700
C498        C  0.85413451  0.41123816  0.61198456     0.02200
H499        H  0.91651095  0.45192661  0.62568510     0.15200
H500        H  0.83977478  0.38424471  0.57546840     0.15200
C501        C  0.82915089  0.40178895  0.62450450     0.36800
C502        C  0.92744462  0.42989419  0.58158469     0.36700
N503        N  0.80911308  0.39394039  0.63462147    -0.43500
N504        N  0.94770984  0.43445913  0.57543762    -0.43500
loop_ 
_geom_bond_atom_site_label_1 
_geom_bond_atom_site_label_2 
_geom_bond_distance 
_geom_bond_site_symmetry_2 
_ccdc_geom_bond_type 
N1            N2   1.323       .  A
N1            C5   1.345       .  A
N1           Cu9   2.068       .  S
N2            C3   1.344       .  A
N2           Cu8   2.076       .  S
C3            C4   1.383       .  A
C3            H6   1.082       .  S
C4            C5   1.381       .  A
C4          C481   1.476       .  S
C5            H7   1.082       .  S
Cu8          N11   2.076       .  S
Cu9          N19   2.068       .  S
Cu10         N12   2.071       .  S
Cu10         N18   2.071       .  S
N11          N12   1.321       .  A
N11          C15   1.345       .  A
N12          C13   1.344       .  A
C13          C14   1.387       .  A
C13          H16   1.082       .  S
C14          C15   1.388       .  A
C14         C493   1.489       .  S
C15          H17   1.081       .  S
N18          N19   1.322       .  A
N18          C22   1.343       .  A
N19          C20   1.344       .  A
C20          C21   1.385       .  A
C20          H23   1.082       .  S
C21          C22   1.384       .  A
C21         C469   1.481       .  S
C22          H24   1.082       .  S
N25          N26   1.321       .  A
N25          C29   1.348       .  A
N25         Cu33   2.085       .  S
N26          C27   1.342       .  A
N26         Cu32   2.065       .  S
C27          C28   1.384       .  A
C27          H30   1.082       .  S
C28          C29   1.390       .  A
C28         C460   1.487       .  S
C29          H31   1.081       .  S
Cu32         N35   2.065       .  S
Cu33         N43   2.085       .  S
Cu34         N36   2.083       .  S
Cu34         N42   2.085       .  S
N35          N36   1.320       .  A
N35          C39   1.342       .  A
N36          C37   1.347       .  A
C37          C38   1.392       .  A
C37          H40   1.080       .  S
C38          C39   1.386       .  A
C38         C496   1.493       .  S
C39          H41   1.081       .  S
N42          N43   1.324       .  A
N42          C46   1.346       .  A
N43          C44   1.347       .  A
C44          C45   1.385       .  A
C44          H47   1.082       .  S
C45          C46   1.385       .  A
C45         C445   1.485       .  S
C46          H48   1.082       .  S
N49          N50   1.321       .  A
N49          C53   1.346       .  A
N49         Cu57   2.074       .  S
N50          C51   1.344       .  A
N50         Cu56   2.068       .  S
C51          C52   1.383       .  A
C51          H54   1.082       .  S
C52          C53   1.385       .  A
C52         C421   1.479       .  S
C53          H55   1.082       .  S
Cu56         N59   2.068       .  S
Cu57         N67   2.074       .  S
Cu58         N60   2.076       .  S
Cu58         N66   2.077       .  S
N59          N60   1.321       .  A
N59          C63   1.342       .  A
N60          C61   1.346       .  A
C61          C62   1.388       .  A
C61          H64   1.082       .  S
C62          C63   1.385       .  A
C62         C436   1.486       .  S
C63          H65   1.081       .  S
N66          N67   1.323       .  A
N66          C70   1.346       .  A
N67          C68   1.344       .  A
C68          C69   1.383       .  A
C68          H71   1.082       .  S
C69          C70   1.385       .  A
C69         C409   1.482       .  S
C70          H72   1.082       .  S
N73          N74   1.321       .  A
N73          C77   1.345       .  A
N73         Cu81   2.073       .  S
N74          C75   1.345       .  A
N74         Cu80   2.074       .  S
C75          C76   1.386       .  A
C75          H78   1.082       .  S
C76          C77   1.387       .  A
C76         C457   1.487       .  S
C77          H79   1.082       .  S
Cu80         N83   2.073       .  S
Cu81         N91   2.072       .  S
Cu82         N84   2.064       .  S
Cu82         N90   2.064       .  S
N83          N84   1.322       .  A
N83          C87   1.343       .  A
N84          C85   1.346       .  A
C85          C86   1.382       .  A
C85          H88   1.082       .  S
C86          C87   1.381       .  A
C86         C433   1.473       .  S
C87          H89   1.082       .  S
N90          N91   1.322       .  A
N90          C94   1.342       .  A
N91          C92   1.345       .  A
C92          C93   1.384       .  A
C92          H95   1.082       .  S
C93          C94   1.382       .  A
C93         C400   1.478   1_545  S
C94          H96   1.082       .  S
N97          N98   1.320       .  A
N97         C101   1.346       .  A
N97        Cu105   2.074       .  S
N98          C99   1.342       .  A
N98        Cu104   2.059       .  S
C99         C100   1.382       .  A
C99         H102   1.082       .  S
C100        C101   1.387       .  A
C100        C484   1.480       .  S
C101        H103   1.082       .  S
Cu104       N107   2.059       .  S
Cu105       N115   2.075       .  S
Cu106       N108   2.086       .  S
Cu106       N114   2.087       .  S
N107        N108   1.321       .  A
N107        C111   1.341       .  A
N108        C109   1.348       .  A
C109        C110   1.391       .  A
C109        H112   1.082       .  S
C110        C111   1.384       .  A
C110        C385   1.489       .  S
C111        H113   1.080       .  S
N114        N115   1.323       .  A
N114        C118   1.347       .  A
N115        C116   1.344       .  A
C116        C117   1.384       .  A
C116        H119   1.082       .  S
C117        C118   1.388       .  A
C117        C373   1.488       .  S
C118        H120   1.081       .  S
N121        N122   1.323       .  A
N121        C125   1.344       .  A
N121       Cu129   2.073       .  S
N122        C123   1.347       .  A
N122       Cu128   2.080       .  S
C123        C124   1.386       .  A
C123        H126   1.082       .  S
C124        C125   1.382       .  A
C124        C424   1.481       .  S
C125        H127   1.082       .  S
Cu128       N131   2.080       .  S
Cu129       N139   2.073       .  S
Cu130       N132   2.072       .  S
Cu130       N138   2.073       .  S
N131        N132   1.323       .  A
N131        C135   1.346   1_554  A
N132        C133   1.345       .  A
C133        C134   1.382   1_554  A
C133        H136   1.082       .  S
C134        C135   1.383       .  A
C134        C388   1.477       .  S
C135        H137   1.082       .  S
N138        N139   1.321       .  A
N138        C142   1.343       .  A
N139        C140   1.346       .  A
C140        C141   1.388       .  A
C140        H143   1.082       .  S
C141        C142   1.386       .  A
C141        C361   1.488       .  S
C142        H144   1.082       .  S
N145        N146   1.321       .  A
N145        C149   1.346       .  A
N145       Cu153   2.081       .  S
N146        C147   1.343       .  A
N146       Cu152   2.066       .  S
C147        C148   1.385       .  A
C147        H150   1.081       .  S
C148        C149   1.388       .  A
C148        C337   1.486       .  S
C149        H151   1.082       .  S
Cu152       N155   2.066   1_556  S
Cu153       N163   2.081       .  S
Cu154       N156   2.064       .  S
Cu154       N162   2.065       .  S
N155        N156   1.320   1_554  A
N155        C159   1.342       .  A
N156        C157   1.343   1_556  A
C157        C158   1.387       .  A
C157        H160   1.081       .  S
C158        C159   1.387       .  A
C158        C349   1.486       .  S
C159        H161   1.082       .  S
N162        N163   1.323       .  A
N162        C166   1.343       .  A
N163        C164   1.346       .  A
C164        C165   1.386       .  A
C164        H167   1.082       .  S
C165        C166   1.381       .  A
C165        C472   1.478       .  S
C166        H168   1.082       .  S
N169        N170   1.321       .  A
N169        C173   1.347       .  A
N169       Cu177   2.082       .  S
N170        C171   1.343       .  A
N170       Cu176   2.063       .  S
C171        C172   1.383       .  A
C171        H174   1.082       .  S
C172        C173   1.388       .  A
C172        C328   1.484       .  S
C173        H175   1.082       .  S
Cu176       N179   2.063       .  S
Cu177       N187   2.083       .  S
Cu178       N180   2.073       .  S
Cu178       N186   2.074       .  S
N179        N180   1.322       .  A
N179        C183   1.343       .  A
N180        C181   1.345       .  A
C181        C182   1.382       .  A
C181        H184   1.082       .  S
C182        C183   1.380       .  A
C182        C352   1.473       .  S
C183        H185   1.082       .  S
N186        N187   1.322       .  A
N186        C190   1.345       .  A
N187        C188   1.346       .  A
C188        C189   1.386       .  A
C188        H191   1.082       .  S
C189        C190   1.386       .  A
C189        C448   1.488       .  S
C190        H192   1.082       .  S
N193        N194   1.322       .  A
N193        C197   1.343       .  A
N193       Cu201   2.069       .  S
N194        C195   1.343       .  A
N194       Cu200   2.065       .  S
C195        C196   1.382       .  A
C195        H198   1.082       .  S
C196        C197   1.384       .  A
C196        C301   1.477       .  S
C197        H199   1.082       .  S
Cu200       N203   2.065       .  S
Cu201       N211   2.069       .  S
Cu202       N204   2.076       .  S
Cu202       N210   2.076       .  S
N203        N204   1.322       .  A
N203        C207   1.343       .  A
N204        C205   1.346       .  A
C205        C206   1.384       .  A
C205        H208   1.082       .  S
C206        C207   1.382       .  A
C206        C313   1.477       .  S
C207        H209   1.082       .  S
N210        N211   1.323       .  A
N210        C214   1.345       .  A
N211        C212   1.345       .  A
C212        C213   1.382       .  A
C212        H215   1.082       .  S
C213        C214   1.382       .  A
C213        C376   1.475       .  S
C214        H216   1.082       .  S
N217        N218   1.322       .  A
N217        C221   1.347       .  A
N217       Cu225   2.080       .  S
N218        C219   1.343       .  A
N218       Cu224   2.065       .  S
C219        C220   1.380       .  A
C219        H222   1.082       .  S
C220        C221   1.384       .  A
C220        C325   1.476       .  S
C221        H223   1.082       .  S
Cu224       N227   2.065       .  S
Cu225       N235   2.080       .  S
Cu226       N228   2.077       .  S
Cu226       N234   2.078       .  S
N227        N228   1.321       .  A
N227        C231   1.343       .  A
N228        C229   1.346       .  A
C229        C230   1.387       .  A
C229        H232   1.081       .  S
C230        C231   1.383       .  A
C230        C316   1.483       .  S
C231        H233   1.082       .  S
N234        N235   1.323       .  A
N234        C238   1.344       .  A
N235        C236   1.346       .  A
C236        C237   1.387       .  A
C236        H239   1.082       .  S
C237        C238   1.385       .  A
C237        C364   1.486       .  S
C238        H240   1.082       .  S
N241        N242   1.321       .  A
N241        C245   1.344       .  A
N241       Cu249   2.065       .  S
N242        C243   1.344       .  A
N242       Cu248   2.072       .  S
C243        C244   1.385       .  A
C243        H246   1.082       .  S
C244        C245   1.384       .  A
C244        C304   1.481       .  S
C245        H247   1.082       .  S
Cu248       N251   2.072       .  S
Cu249       N259   2.065       .  S
Cu250       N252   2.059       .  S
Cu250       N258   2.059       .  S
N251        N252   1.322       .  A
N251        C255   1.344       .  A
N252        C253   1.343       .  A
C253        C254   1.379       .  A
C253        H256   1.082       .  S
C254        C255   1.382       .  A
C254        C289   1.471       .  S
C255        H257   1.082       .  S
N258        N259   1.321       .  A
N258        C262   1.343       .  A
N259        C260   1.341       .  A
C260        C261   1.385       .  A
C260        H263   1.082       .  S
C261        C262   1.384       .  A
C261        C397   1.480       .  S
C262        H264   1.081       .  S
N265        N266   1.321       .  A
N265        C269   1.347       .  A
N265       Cu273   2.085       .  S
N266        C267   1.342       .  A
N266       Cu272   2.061       .  S
C267        C268   1.384       .  A
C267        H270   1.081       .  S
C268        C269   1.389       .  A
C268        C340   1.486       .  S
C269        H271   1.082       .  S
Cu272       N275   2.060       .  S
Cu273       N283   2.085       .  S
Cu274       N276   2.070       .  S
Cu274       N282   2.071       .  S
N275        N276   1.320       .  A
N275        C279   1.341       .  A
N276        C277   1.345       .  A
C277        C278   1.388       .  A
C277        H280   1.081       .  S
C278        C279   1.384       .  A
C278        C292   1.483       .  S
C279        H281   1.082       .  S
N282        N283   1.323       .  A
N282        C286   1.344       .  A
N283        C284   1.346       .  A
C284        C285   1.386       .  A
C284        H287   1.082       .  S
C285        C286   1.384       .  A
C285        C412   1.484       .  S
C286        H288   1.081       .  S
C289        C290   1.401       .  A
C289        C294   1.407       .  A
C290        C291   1.401       .  A
C290        H295   1.085       .  S
C291        C292   1.415       .  A
C291        C298   1.443       .  S
C292        C293   1.406       .  A
C293        C294   1.397       .  A
C293        H296   1.084       .  S
C294        C297   1.444       .  S
C297        N299   1.157       .  T
C298        N300   1.157       .  T
C301        C302   1.402       .  A
C301        C306   1.411       .  A
C302        C303   1.399       .  A
C302        H307   1.085       .  S
C303        C304   1.413       .  A
C303        C310   1.444       .  S
C304        C305   1.404       .  A
C305        C306   1.399       .  A
C305        H308   1.085       .  S
C306        C309   1.444       .  S
C309        N311   1.157       .  T
C310        N312   1.157       .  T
C313        C314   1.402       .  A
C313        C318   1.410       .  A
C314        C315   1.402       .  A
C314        H319   1.085       .  S
C315        C316   1.414       .  A
C315        C322   1.444       .  S
C316        C317   1.405       .  A
C317        C318   1.399       .  A
C317        H320   1.084       .  S
C318        C321   1.444       .  S
C321        N323   1.157       .  T
C322        N324   1.157       .  T
C325        C326   1.402       .  A
C325        C330   1.409       .  A
C326        C327   1.402       .  A
C326        H331   1.085       .  S
C327        C328   1.414       .  A
C327        C334   1.443       .  S
C328        C329   1.405       .  A
C329        C330   1.399       .  A
C329        H332   1.084       .  S
C330        C333   1.444       .  S
C333        N335   1.157       .  T
C334        N336   1.157       .  T
C337        C338   1.404       .  A
C337        C342   1.415       .  A
C338        C339   1.401       .  A
C338        H343   1.084       .  S
C339        C340   1.415       .  A
C339        C346   1.444       .  S
C340        C341   1.404       .  A
C341        C342   1.401       .  A
C341        H344   1.084       .  S
C342        C345   1.444       .  S
C345        N347   1.157   1_556  T
C346        N348   1.157       .  T
C349        C350   1.407       .  A
C349        C354   1.417       .  A
C350        C351   1.398       .  A
C350        H355   1.084       .  S
C351        C352   1.408       .  A
C351        C358   1.444       .  S
C352        C353   1.400       .  A
C353        C354   1.400       .  A
C353        H356   1.085       .  S
C354        C357   1.443       .  S
C357        N359   1.157       .  T
C358        N360   1.157       .  T
C361        C362   1.406       .  A
C361        C366   1.415       .  A
C362        C363   1.401       .  A
C362        H367   1.084       .  S
C363        C364   1.413       .  A
C363        C370   1.444       .  S
C364        C365   1.405       .  A
C365        C366   1.402       .  A
C365        H368   1.084       .  S
C366        C369   1.443       .  S
C369        N371   1.157       .  T
C370        N372   1.157       .  T
C373        C374   1.407       .  A
C373        C378   1.416       .  A
C374        C375   1.401       .  A
C374        H379   1.084       .  S
C375        C376   1.408       .  A
C375        C382   1.444       .  S
C376        C377   1.401       .  A
C377        C378   1.401       .  A
C377        H380   1.085       .  S
C378        C381   1.443       .  S
C381        N383   1.157       .  T
C382        N384   1.157       .  T
C385        C386   1.406       .  A
C385        C390   1.419       .  A
C386        C387   1.401       .  A
C386        H391   1.084       .  S
C387        C388   1.409       .  A
C387        C394   1.444       .  S
C388        C389   1.400       .  A
C389        C390   1.401       .  A
C389        H392   1.086       .  S
C390        C393   1.444       .  S
C393        N395   1.158       .  T
C394        N396   1.157       .  T
C397        C398   1.404       .  A
C397        C402   1.414       .  A
C398        C399   1.396       .  A
C398        H403   1.084       .  S
C399        C400   1.411       .  A
C399        C406   1.444       .  S
C400        C401   1.404   1_565  A
C401        C402   1.400   1_545  A
C401        H404   1.085       .  S
C402        C405   1.444       .  S
C405        N407   1.157       .  T
C406        N408   1.157       .  T
C409        C410   1.403       .  A
C409        C414   1.412   1_545  A
C410        C411   1.400   1_544  A
C410        H415   1.085   1_554  S
C411        C412   1.414       .  A
C411        C418   1.444       .  S
C412        C413   1.405   1_556  A
C413        C414   1.402       .  A
C413        H416   1.084       .  S
C414        C417   1.444       .  S
C417        N419   1.157       .  T
C418        N420   1.157   1_565  T
C421        C422   1.403       .  A
C421        C426   1.411       .  A
C422        C423   1.401       .  A
C422        H427   1.085       .  S
C423        C424   1.412       .  A
C423        C430   1.444       .  S
C424        C425   1.405       .  A
C425        C426   1.401       .  A
C425        H428   1.084       .  S
C426        C429   1.444       .  S
C429        N431   1.157       .  T
C430        N432   1.157       .  T
C433        C434   1.399       .  A
C433        C438   1.408       .  A
C434        C435   1.398       .  A
C434        H439   1.085       .  S
C435        C436   1.416       .  A
C435        C442   1.443       .  S
C436        C437   1.407       .  A
C437        C438   1.402       .  A
C437        H440   1.084       .  S
C438        C441   1.444       .  S
C441        N443   1.157       .  T
C442        N444   1.157       .  T
C445        C446   1.403       .  A
C445        C450   1.413       .  A
C446        C447   1.401   1_655  A
C446        H451   1.085       .  S
C447        C448   1.415       .  A
C447        C454   1.443       .  S
C448        C449   1.406       .  A
C449        C450   1.403   1_455  A
C449        H452   1.085       .  S
C450        C453   1.444       .  S
C453        N455   1.157       .  T
C454        N456   1.157       .  T
C457        C458   1.406       .  A
C457        C462   1.413       .  A
C458        C459   1.403       .  A
C458        H463   1.084       .  S
C459        C460   1.413       .  A
C459        C466   1.443       .  S
C460        C461   1.405       .  A
C461        C462   1.400       .  A
C461        H464   1.084       .  S
C462        C465   1.444       .  S
C465        N467   1.157       .  T
C466        N468   1.157       .  T
C469        C470   1.404       .  A
C469        C474   1.413       .  A
C470        C471   1.399   1_655  A
C470        H475   1.084       .  S
C471        C472   1.410       .  A
C471        C478   1.444       .  S
C472        C473   1.404   1_455  A
C473        C474   1.401       .  A
C473        H476   1.084       .  S
C474        C477   1.444       .  S
C477        N479   1.157       .  T
C478        N480   1.157       .  T
C481        C482   1.402       .  A
C481        C486   1.410       .  A
C482        C483   1.402       .  A
C482        H487   1.085       .  S
C483        C484   1.413       .  A
C483        C490   1.444       .  S
C484        C485   1.404       .  A
C485        C486   1.399       .  A
C485        H488   1.085       .  S
C486        C489   1.444       .  S
C489        N491   1.157       .  T
C490        N492   1.157       .  T
C493        C494   1.406       .  A
C493        C498   1.413       .  A
C494        C495   1.402       .  A
C494        H499   1.084       .  S
C495        C496   1.415       .  A
C495        C502   1.443       .  S
C496        C497   1.407       .  A
C497        C498   1.400       .  A
C497        H500   1.083       .  S
C498        C501   1.444       .  S
C501        N503   1.157       .  T
C502        N504   1.157       .  T
