geometry optimzed in LAMMPS
_audit_creation_date              2020-11-30 
_audit_creation_method            'lammps2cif' 
_symmetry_space_group_name_H-M    'P1' 
_symmetry_Int_Tables_number       1 
_symmetry_cell_setting            triclinic 
loop_ 
_symmetry_equiv_pos_as_xyz 
  x,y,z 
_cell_length_a                    50.750488093270036 
_cell_length_b                    50.15699469439061 
_cell_length_c                    40.04757821180652 
_cell_angle_alpha                 90.9087712338632 
_cell_angle_beta                  89.83664549021094 
_cell_angle_gamma                 121.5856050775408 
loop_ 
_atom_site_label 
_atom_site_type_symbol 
_atom_site_fract_x 
_atom_site_fract_y 
_atom_site_fract_z 
_atom_site_charge 
O1          O  0.44146944  0.41365374  0.33757020    -0.80910
O2          O  0.45715992  0.34816529  0.43942652    -0.80930
O3          O  0.36605705  0.33391214  0.40920242    -0.80940
O4          O  0.49766157  0.37623414  0.36403677    -0.80880
O5          O  0.40836950  0.35205308  0.43666718    -0.81000
O6          O  0.47570670  0.40211115  0.38149322    -0.80920
O7          O  0.47834476  0.32823218  0.40882846    -0.80910
O8          O  0.40951744  0.38825761  0.37869430    -0.80950
C9          C  0.42531823  0.41355432  0.36174207     1.08780
C10         C  0.47579025  0.33918299  0.43672259     1.08670
C11         C  0.38102158  0.34532917  0.43626795     1.08800
C12         C  0.49994319  0.40153411  0.37474138     1.08680
O13         O  0.46678470  0.38046956  0.31522989    -0.80910
O14         O  0.37145832  0.28681743  0.41027926    -0.80990
O15         O  0.36091384  0.34397806  0.34124575    -0.80920
O16         O  0.43010700  0.28692771  0.36182375    -0.80900
O17         O  0.42248220  0.28319461  0.41584988    -0.80950
O18         O  0.40394765  0.35404343  0.31613547    -0.80920
O19         O  0.45136330  0.33127700  0.31558236    -0.80880
O20         O  0.36953137  0.29548694  0.35662397    -0.80950
Co21       Co  0.43870475  0.37673350  0.35250021     1.51530
Co22       Co  0.41558894  0.31913047  0.42362893     1.51690
Co23       Co  0.39117506  0.34091925  0.36641505     1.51570
Co24       Co  0.46222131  0.33090837  0.36290905     1.51470
O25         O  0.42883436  0.33886892  0.37858722    -1.42840
C26         C  0.46511520  0.35703786  0.30098437     1.08710
C27         C  0.35925722  0.27740357  0.38133580     1.08800
C28         C  0.37637116  0.34939943  0.31455193     1.08740
C29         C  0.42416820  0.27151855  0.38813781     1.08710
O30         O  0.46273082  0.12404968  0.31298864    -0.80910
O31         O  0.42997704  0.04017024  0.41611701    -0.80930
O32         O  0.99722401  0.12524414  0.37383211    -0.80940
O33         O  0.36996127  0.03879965  0.33617029    -0.80880
O34         O  0.48283737  0.09368469  0.41535761    -0.81000
O35         O  0.41199727  0.06888195  0.30834771    -0.80920
O36         O  0.40727755  0.03115882  0.36880052    -0.80910
O37         O  0.48420481  0.16440432  0.34626700    -0.80950
C38         C  0.48113209  0.15274785  0.31713698     1.08780
C39         C  0.42086053  0.02441182  0.38956503     1.08670
C40         C  0.00173142  0.10816132  0.39236417     1.08800
C41         C  0.38656505  0.04375147  0.31013330     1.08680
O42         O  0.37608750  0.09255258  0.33530727    -0.80910
O43         O  0.45429673  0.12778243  0.43946157    -0.80990
O44         O  0.43687518  0.14995954  0.39594664    -0.80920
O45         O  0.36131391  0.02724915  0.41013537    -0.80900
O46         O  0.39613272  0.06987501  0.43707309    -0.80950
O47         O  0.42798594  0.14955655  0.34252206    -0.80920
O48         O  0.37323553  0.08466042  0.38841067    -0.80880
O49         O  0.49582558  0.16715935  0.41721677    -0.80950
Co50       Co  0.42060012  0.10782740  0.32754722     1.51530
Co51       Co  0.43987305  0.08410599  0.42204585     1.51690
Co52       Co  0.46622544  0.13600688  0.38624410     1.51570
Co53       Co  0.39190217  0.05864473  0.38072080     1.51470
O54         O  0.43260427  0.09450657  0.37026527    -1.42840
C55         C  0.36391041  0.09187445  0.36296435     1.08710
C56         C  0.48228803  0.15094418  0.44286984     1.08800
C57         C  0.42975885  0.16054452  0.37166498     1.08740
C58         C  0.37276773  0.04163514  0.43801939     1.08710
O59         O  0.02410895  0.39279815  0.11852702    -0.80910
O60         O  0.15198656  0.48135366  0.09280121    -0.80930
O61         O  0.09097860  0.47547005  0.17432587    -0.80940
O62         O  0.06031083  0.39769585  0.05838839    -0.80880
O63         O  0.11463781  0.48811508  0.12803440    -0.81000
O64         O  0.03777014  0.35496340  0.08645518    -0.80920
O65         O  0.11090687  0.45318081  0.06151281    -0.80910
O66         O  0.03753108  0.42316931  0.16238964    -0.80950
C67         C  0.01958180  0.40987858  0.13787194     1.08780
C68         C  0.13625056  0.47827668  0.06654773     1.08670
C69         C  0.10195270  0.49444070  0.15091103     1.08800
C70         C  0.04132555  0.36890686  0.05918351     1.08680
O71         O  0.08242268  0.36511622  0.13756860    -0.80910
O72         O  0.15866700  0.48642743  0.16688352    -0.80990
O73         O  0.06223484  0.38498550  0.18174816    -0.80920
O74         O  0.14585253  0.42799204  0.08418148    -0.80900
O75         O  0.14734777  0.43155781  0.13801744    -0.80950
O76         O  0.02223641  0.34670405  0.15573728    -0.80920
O77         O  0.09418500  0.36980636  0.08476827    -0.80880
O78         O  0.12229456  0.44304719  0.19103353    -0.80950
Co79       Co  0.05405638  0.38041897  0.12951638     1.51530
Co80       Co  0.12874078  0.45823735  0.13482153     1.51690
Co81       Co  0.07936837  0.43065292  0.17242620     1.51570
Co82       Co  0.10179342  0.41288656  0.07525836     1.51470
O83         O  0.08867696  0.42357636  0.11963519    -1.42840
C84         C  0.09091755  0.35628709  0.11235555     1.08710
C85         C  0.14706184  0.47071550  0.19352201     1.08800
C86         C  0.03337455  0.36332185  0.18224723     1.08740
C87         C  0.15790900  0.42727450  0.11122415     1.08710
O88         O  0.18846239  0.15167202  0.34469147    -0.80910
O89         O  0.14547474  0.01891708  0.38843326    -0.80930
O90         O  0.17683300  0.05994371  0.31142140    -0.80940
O91         O  0.10434102  0.06991615  0.40754909    -0.80880
O92         O  0.19385375  0.03801821  0.34506514    -0.81000
O93         O  0.13171870  0.10852997  0.37300199    -0.80920
O94         O  0.12312722  0.04083613  0.36374060    -0.80910
O95         O  0.17371333  0.11129716  0.31243091    -0.80950
C96         C  0.17921523  0.13858726  0.31658047     1.08780
C97         C  0.12236806  0.01623521  0.37261459     1.08670
C98         C  0.18335297  0.03945574  0.31671140     1.08800
C99         C  0.10587713  0.09048613  0.38870694     1.08680
O100        O  0.17578065  0.15775209  0.40732643    -0.80910
O101        O  0.23451171  0.08709154  0.39283268    -0.80990
O102        O  0.23564724  0.14652555  0.34317365    -0.80920
O103        O  0.13978304  0.05132290  0.43257179    -0.80900
O104        O  0.18817500  0.06682009  0.43733763    -0.80950
O105        O  0.22388644  0.14837494  0.39615015    -0.80920
O106        O  0.15965343  0.11286995  0.43219035    -0.80880
O107        O  0.23913653  0.09463580  0.33895722    -0.80950
Co108      Co  0.17929588  0.12626237  0.38558643     1.51530
Co109      Co  0.19034716  0.05524038  0.39040030     1.51690
Co110      Co  0.20448278  0.10218374  0.32865254     1.51570
Co111      Co  0.14313271  0.07754200  0.39449711     1.51470
O112        O  0.18285279  0.08904999  0.37309327    -1.42840
C113        C  0.16447852  0.14104720  0.43273464     1.08710
C114        C  0.25064735  0.09387432  0.36691773     1.08800
C115        C  0.24292047  0.15934957  0.37217088     1.08740
C116        C  0.16164580  0.05373763  0.44984772     1.08710
O117        O  0.03319129  0.12011812  0.17394044    -0.80910
O118        O  0.12089238  0.20224379  0.05178494    -0.80930
O119        O  0.02842920  0.17379811  0.09853119    -0.80940
O120        O  0.09377685  0.11896967  0.12469790    -0.80880
O121        O  0.06242915  0.16496804  0.07328952    -0.81000
O122        O  0.08449914  0.11510858  0.17816942    -0.80920
O123        O  0.12554533  0.16650713  0.07798006    -0.80910
O124        O  0.03624327  0.12726168  0.12044222    -0.80950
C125        C  0.02206082  0.11025498  0.14478574     1.08780
C126        C  0.12601807  0.18000611  0.05095230     1.08670
C127        C  0.03849055  0.16779750  0.07205626     1.08800
C128        C  0.08761735  0.10341341  0.15115064     1.08680
O129        O  0.12001519  0.17885388  0.20560986    -0.80910
O130        O  0.09571732  0.22954684  0.09068951    -0.80990
O131        O  0.03204466  0.16970232  0.16954790    -0.80920
O132        O  0.16440904  0.20646862  0.13209452    -0.80900
O133        O  0.14315621  0.23101886  0.11271022    -0.80950
O134        O  0.07173120  0.18477783  0.20135301    -0.80920
O135        O  0.13962613  0.15849126  0.17361163    -0.80880
O136        O  0.07520502  0.21876076  0.13884282    -0.80950
Co137      Co  0.07838039  0.15152253  0.18690567     1.51530
Co138      Co  0.10415605  0.19526655  0.09601476     1.51690
Co139      Co  0.05737792  0.17346461  0.12835895     1.51570
Co140      Co  0.12717371  0.16340074  0.12816688     1.51470
O141        O  0.09506462  0.17601423  0.14320249    -1.42840
C142        C  0.13939034  0.17084802  0.20111551     1.08710
C143        C  0.08668426  0.23796450  0.11563676     1.08800
C144        C  0.04554924  0.18079195  0.19754713     1.08740
C145        C  0.16591813  0.23169407  0.12549324     1.08710
O146        O  0.41141251  0.43690549  0.15878658    -0.80910
O147        O  0.34000543  0.44981296  0.05362384    -0.80930
O148        O  0.33317754  0.36150054  0.08731682    -0.80940
O149        O  0.37697682  0.49397989  0.13298675    -0.80880
O150        O  0.34552862  0.40120703  0.05600956    -0.81000
O151        O  0.39964755  0.46970999  0.11327385    -0.80920
O152        O  0.32799817  0.47599931  0.08850899    -0.80910
O153        O  0.38637187  0.40418670  0.11748197    -0.80950
C154        C  0.41065279  0.41862911  0.13622280     1.08780
C155        C  0.33583602  0.47191596  0.05952445     1.08670
C156        C  0.34328779  0.37547583  0.05987211     1.08800
C157        C  0.40124158  0.49501017  0.12178048     1.08680
O158        O  0.37950415  0.46238667  0.17987421    -0.80910
O159        O  0.28408361  0.36409925  0.08715026    -0.80990
O160        O  0.34367643  0.35681905  0.15551588    -0.80920
O161        O  0.28605916  0.43002988  0.13605773    -0.80900
O162        O  0.27924087  0.41615504  0.08303570    -0.80950
O163        O  0.35270200  0.40038668  0.17982458    -0.80920
O164        O  0.33141296  0.44833153  0.18097065    -0.80880
O165        O  0.29596267  0.36531114  0.14034758    -0.80950
Co166      Co  0.37473678  0.43368760  0.14273362     1.51530
Co167      Co  0.31392185  0.40870065  0.07257238     1.51690
Co168      Co  0.34018934  0.38700413  0.12992666     1.51570
Co169      Co  0.33089827  0.45958393  0.13386409     1.51470
O170        O  0.33692266  0.42435869  0.11686148    -1.42840
C171        C  0.35720914  0.46108925  0.19531288     1.08710
C172        C  0.27737172  0.35235367  0.11621610     1.08800
C173        C  0.34868101  0.37286098  0.18217107     1.08740
C174        C  0.26911776  0.42055315  0.11042611     1.08710
C175        C  0.43524398  0.04855200  0.14717829    -0.21080
C176        C  0.43235331  0.02523015  0.12466856    -0.07640
C177        C  0.45968736  0.03049119  0.10850767     0.13230
C178        C  0.48850141  0.05816899  0.11568605    -0.21130
C179        C  0.49126122  0.08069987  0.13912103    -0.07650
C180        C  0.46401413  0.07589662  0.15452326     0.13210
C181        C  0.46487549  0.10029223  0.17765105    -0.24480
H182        H  0.41483389  0.04521488  0.15977070     0.14500
H183        H  0.00917338  0.06213790  0.10312225     0.14530
C184        C  0.45888145  0.00744776  0.08328510    -0.24430
H185        H  0.44154876  0.09317771  0.18717566     0.04740
H186        H  0.47376176  0.12238389  0.16388843     0.07970
H187        H  0.48002695  0.10437269  0.19948509     0.07970
H188        H  0.44202984  0.50305183  0.06311726     0.07950
H189        H  0.45235806  0.48514449  0.09552793     0.07950
H190        H  0.48181994  0.01633882  0.07157364     0.04730
C191        C  0.22256478  0.26451363  0.12006879    -0.21080
C192        C  0.19498214  0.26238478  0.12972698    -0.07640
C193        C  0.19524211  0.29029009  0.13742628     0.13230
C194        C  0.22241636  0.31943716  0.13260189    -0.21130
C195        C  0.24939616  0.32137500  0.12112415    -0.07650
C196        C  0.24971675  0.29364802  0.11552704     0.13210
C197        C  0.27839303  0.29460703  0.10378412    -0.24480
H198        H  0.22245132  0.24329196  0.11410573     0.14500
H199        H  0.22252468  0.34078127  0.13778612     0.14530
C200        C  0.16762832  0.29036633  0.15131590    -0.24430
H201        H  0.27461719  0.27078090  0.10093737     0.04740
H202        H  0.29738846  0.30782462  0.12216390     0.07970
H203        H  0.28525744  0.30593750  0.07910698     0.07970
H204        H  0.14816145  0.26671170  0.15755272     0.07950
H205        H  0.15956504  0.30105284  0.13308462     0.07950
H206        H  0.17440328  0.30451080  0.17483148     0.04730
C207        C  0.15297066  0.18039578  0.26121386    -0.21080
C208        C  0.15771180  0.17079065  0.22970366    -0.07640
C209        C  0.17603540  0.15705176  0.22747037     0.13230
C210        C  0.18480154  0.14910145  0.25684550    -0.21130
C211        C  0.17613335  0.15472930  0.28809315    -0.07650
C212        C  0.16205607  0.17252952  0.29054497     0.13210
C213        C  0.15439444  0.18104921  0.32377611    -0.24480
H214        H  0.14015679  0.19213349  0.26315100     0.14500
H215        H  0.19704123  0.13672526  0.25538722     0.14530
C216        C  0.18545270  0.14918712  0.19472895    -0.24430
H217        H  0.14195122  0.19369138  0.32111065     0.04740
H218        H  0.17594271  0.19626623  0.33830395     0.07970
H219        H  0.13942401  0.15934466  0.33756041     0.07970
H220        H  0.19688557  0.17019488  0.17879356     0.07950
H221        H  0.16499996  0.12965716  0.18168384     0.07950
H222        H  0.20212923  0.14146503  0.19845373     0.04730
C223        C  0.14427257  0.13298853  0.98985835    -0.21080
C224        C  0.15579018  0.15277600  0.46249997    -0.07640
C225        C  0.15566476  0.18111570  0.46342828     0.13230
C226        C  0.14499739  0.18901445  0.99218413    -0.21130
C227        C  0.13406092  0.16932866  0.01981301    -0.07650
C228        C  0.13315636  0.14044506  0.01810289     0.13210
C229        C  0.12045528  0.11666704  0.04553748    -0.24480
H230        H  0.14369687  0.11107358  0.98920984     0.14500
H231        H  0.14563591  0.21095118  0.99325314     0.14530
C232        C  0.16625308  0.20316967  0.43444928    -0.24430
H233        H  0.11874980  0.09440204  0.03798277     0.04740
H234        H  0.09679105  0.11082291  0.05227598     0.07970
H235        H  0.13619552  0.12598704  0.06750722     0.07970
H236        H  0.15177311  0.19099262  0.41206989     0.07950
H237        H  0.19090956  0.21199278  0.42907557     0.07950
H238        H  0.16424267  0.22383138  0.43979700     0.04730
C239        C  0.12021706  0.49670659  0.51916813    -0.21080
C240        C  0.14463041  0.50231969  0.04061016    -0.07640
C241        C  0.17462479  0.02778665  0.03408509     0.13230
C242        C  0.17952142  0.04540942  0.00499460    -0.21130
C243        C  0.15514559  0.03773800  0.48231265    -0.07650
C244        C  0.12497063  0.51281190  0.48982549     0.13210
C245        C  0.09746361  0.50101521  0.46649503    -0.24480
H246        H  0.09672721  0.47822280  0.52453858     0.14500
H247        H  0.20262337  0.06459037  0.99942029     0.14530
C248        C  0.20134401  0.03595357  0.05697889    -0.24430
H249        H  0.07628906  0.48014641  0.47620528     0.04740
H250        H  0.10253524  0.49381411  0.44217351     0.07970
H251        H  0.09178498  0.51934990  0.46300163     0.07970
H252        H  0.20480708  0.01590158  0.05832164     0.07950
H253        H  0.19656870  0.04162397  0.08234556     0.07950
H254        H  0.22316674  0.05658263  0.04807537     0.04730
C255        C  0.15759546  0.98759519  0.28795971    -0.21080
C256        C  0.18067111  0.01929622  0.28802551    -0.07640
C257        C  0.19677606  0.03285587  0.25816788     0.13230
C258        C  0.18703607  0.01536958  0.22819043    -0.21130
C259        C  0.16129274  0.48458506  0.22704332    -0.07650
C260        C  0.14773158  0.46993281  0.25793621     0.13210
C261        C  0.12176374  0.43633598  0.25980741    -0.24480
H262        H  0.14558266  0.97728382  0.31103594     0.14500
H263        H  0.19851784  0.02663893  0.20522897     0.14530
C264        C  0.22382639  0.06619948  0.25771185    -0.24430
H265        H  0.11525690  0.42867614  0.28599289     0.04740
H266        H  0.12869011  0.42087361  0.24771681     0.07970
H267        H  0.10112837  0.43367881  0.24734670     0.07970
H268        H  0.24184811  0.06903216  0.27558114     0.07950
H269        H  0.21631900  0.08269258  0.26471399     0.07950
H270        H  0.23446137  0.07272694  0.23258552     0.04730
C271        C  0.08593409  0.02915283  0.17840777    -0.21080
C272        C  0.09932531  0.02304538  0.15069999    -0.07640
C273        C  0.10833404  0.04354689  0.12327827     0.13230
C274        C  0.10316353  0.06850288  0.12410112    -0.21130
C275        C  0.08929771  0.07431753  0.15140902    -0.07650
C276        C  0.08033721  0.05393170  0.17896767     0.13210
C277        C  0.06425893  0.05743919  0.20890821    -0.24480
H278        H  0.07912475  0.01396688  0.19974255     0.14500
H279        H  0.11054834  0.08395476  0.10315035     0.14530
C280        C  0.12334038  0.03956270  0.09274284    -0.24430
H281        H  0.05686878  0.03805593  0.22672613     0.04740
H282        H  0.04323025  0.05718593  0.20072390     0.07970
H283        H  0.08012774  0.07959395  0.22262514     0.07970
H284        H  0.10709881  0.01663938  0.08063642     0.07950
H285        H  0.14519538  0.04102378  0.09985297     0.07950
H286        H  0.12919696  0.05792776  0.07401518     0.04730
C287        C  0.10677935  0.29097018  0.09235878    -0.21080
C288        C  0.08931063  0.26907371  0.11705112    -0.07640
C289        C  0.07427347  0.27720917  0.14148062     0.13230
C290        C  0.07645139  0.30627793  0.13980208    -0.21130
C291        C  0.09292061  0.32765919  0.11432561    -0.07650
C292        C  0.10878797  0.31996602  0.09060368     0.13210
C293        C  0.12829947  0.34214907  0.06357158    -0.24480
H294        H  0.11880978  0.28525868  0.07391859     0.14500
H295        H  0.06418172  0.31184878  0.15807719     0.14530
C296        C  0.05511732  0.25534138  0.16899531    -0.24430
H297        H  0.14075046  0.33318945  0.04889710     0.04740
H298        H  0.14585144  0.36487863  0.07503222     0.07970
H299        H  0.11359285  0.34552517  0.04584453     0.07970
H300        H  0.06988805  0.25056354  0.18511293     0.07950
H301        H  0.03587910  0.23310978  0.15811057     0.07950
H302        H  0.04467154  0.26547168  0.18527254     0.04730
C303        C  0.22694185  0.42208017  0.08140733    -0.21080
C304        C  0.23849327  0.41812809  0.11140651    -0.07640
C305        C  0.22209156  0.41510315  0.14135100     0.13230
C306        C  0.19561243  0.41747848  0.14038796    -0.21130
C307        C  0.18511116  0.42321847  0.11050263    -0.07650
C308        C  0.20110389  0.42523411  0.08039515     0.13210
C309        C  0.19223413  0.43174411  0.04682748    -0.24480
H310        H  0.23908835  0.42412882  0.05846731     0.14500
H311        H  0.18333924  0.41536361  0.16332815     0.14530
C312        C  0.23199496  0.40918078  0.17448193    -0.24430
H313        H  0.20813769  0.43348379  0.02669380     0.04740
H314        H  0.19324692  0.45440246  0.04788893     0.07970
H315        H  0.16869928  0.41249364  0.03943045     0.07970
H316        H  0.25440629  0.42988967  0.18250149     0.07950
H317        H  0.23411430  0.38828437  0.17243218     0.07950
H318        H  0.21500336  0.40480620  0.19443139     0.04730
C319        C  0.46676712  0.44240306  0.13976981    -0.21080
C320        C  0.43813483  0.41591857  0.13109713    -0.07640
C321        C  0.43712413  0.38805796  0.12080881     0.13230
C322        C  0.46451618  0.38743753  0.12160455    -0.21130
C323        C  0.49253846  0.41330704  0.13303881    -0.07650
C324        C  0.49375971  0.44148428  0.14093563     0.13210
C325        C  0.02347592  0.47102160  0.15002783    -0.24480
H326        H  0.46797505  0.46403897  0.14658137     0.14500
H327        H  0.46359312  0.36592973  0.11485410     0.14530
C328        C  0.40815735  0.35801527  0.11006522    -0.24430
H329        H  0.02051983  0.49138658  0.15278436     0.04740
H330        H  0.04056358  0.47634435  0.12995484     0.07970
H331        H  0.03217474  0.46820955  0.17424227     0.07970
H332        H  0.40540025  0.33842850  0.12531783     0.07950
H333        H  0.38670415  0.35829825  0.11260995     0.07950
H334        H  0.41035444  0.35271250  0.08353793     0.04730
C335        C  0.48881647  0.13060899  0.99564208    -0.21080
C336        C  0.49752905  0.15687706  0.47586834    -0.07640
C337        C  0.01989603  0.18696589  0.48822474     0.13230
C338        C  0.03228097  0.18988011  0.02037036    -0.21130
C339        C  0.02292077  0.16348582  0.04002482    -0.07650
C340        C  0.00101433  0.13354343  0.02765962     0.13210
C341        C  0.99071872  0.10477511  0.04812165    -0.24480
H342        H  0.47295393  0.10747475  0.98557216     0.14500
H343        H  0.04965614  0.21279665  0.03009780     0.14530
C344        C  0.03054815  0.21590666  0.46801774    -0.24430
H345        H  0.47312600  0.08310322  0.03472486     0.04740
H346        H  0.48037111  0.10665040  0.07184556     0.07970
H347        H  0.01085405  0.10253434  0.05386025     0.07970
H348        H  0.01041477  0.21780640  0.46117148     0.07950
H349        H  0.04223906  0.21481217  0.44503164     0.07950
H350        H  0.04728649  0.23747606  0.48217711     0.04730
C351        C  0.02943446  0.18967230  0.28818039    -0.21080
C352        C  0.49728241  0.17098515  0.28743313    -0.07640
C353        C  0.48145699  0.16431873  0.25634660     0.13230
C354        C  0.49833414  0.17160500  0.22663132    -0.21130
C355        C  0.03038491  0.18494680  0.22734371    -0.07650
C356        C  0.04640036  0.19702431  0.25845653     0.13210
C357        C  0.08124179  0.21622042  0.26127595    -0.24480
H358        H  0.04138306  0.19579425  0.31206918     0.14920
H359        H  0.48613995  0.16447857  0.20294626     0.14530
C360        C  0.44669237  0.14863510  0.25416169    -0.24430
H361        H  0.08893077  0.22703887  0.28655654     0.04740
H362        H  0.09077752  0.23547863  0.24301782     0.07970
H363        H  0.09114487  0.20129756  0.25711391     0.07970
H364        H  0.43913339  0.16263859  0.26824131     0.07950
H365        H  0.43489094  0.12472038  0.26425670     0.07950
H366        H  0.43869073  0.14649346  0.22792203     0.04730
C367        C  0.33289312  0.49697727  0.47166806    -0.21080
C368        C  0.35999427  0.02673591  0.47111547    -0.07640
C369        C  0.37589683  0.04014969  0.00203089     0.13230
C370        C  0.36535699  0.02282514  0.03152623    -0.21130
C371        C  0.33993007  0.49227839  0.03117627    -0.07650
C372        C  0.32286990  0.47954703  0.50113321     0.13210
C373        C  0.29421761  0.44726553  0.49996632    -0.24480
H374        H  0.32019432  0.48660982  0.44862282     0.14500
H375        H  0.37853517  0.03222702  0.05451575     0.14530
C376        C  0.40538359  0.07166717  0.00433766    -0.24430
H377        H  0.28322560  0.44123543  0.47481581     0.04740
H378        H  0.27717254  0.44626749  0.01803098     0.07970
H379        H  0.29990681  0.42939026  0.50627917     0.07970
H380        H  0.40136627  0.09019763  0.99578589     0.07950
H381        H  0.42312537  0.07099131  0.48886174     0.07950
H382        H  0.41463109  0.07792953  0.03025904     0.04730
C383        C  0.34910762  0.99380049  0.27928142    -0.21080
C384        C  0.37863435  0.02112714  0.28176448    -0.07640
C385        C  0.40088924  0.02687140  0.25633287     0.13230
C386        C  0.39288831  0.00543568  0.23023837    -0.21130
C387        C  0.36325519  0.47912576  0.22684564    -0.07650
C388        C  0.34094029  0.97292151  0.25173160     0.13210
C389        C  0.30884804  0.44433593  0.24966301    -0.24480
H390        H  0.33217972  0.98914906  0.29844149     0.14500
H391        H  0.40987490  0.51029448  0.21105081     0.14530
C392        C  0.43326516  0.05571723  0.25476034    -0.24430
H393        H  0.29502581  0.94230716  0.27208467     0.04740
H394        H  0.31019604  0.42297692  0.24774186     0.07970
H395        H  0.29646030  0.44560864  0.22755739     0.07970
H396        H  0.44688245  0.05827064  0.27743808     0.07950
H397        H  0.43191739  0.07685889  0.25138966     0.07950
H398        H  0.44678402  0.05482617  0.23338655     0.04730
C399        C  0.02346051  0.07436277  0.39260465    -0.21080
C400        C  0.02848488  0.10424395  0.38780352    -0.07640
C401        C  0.05882907  0.12942386  0.38164624     0.13230
C402        C  0.08340803  0.12400304  0.38108979    -0.21130
C403        C  0.07851229  0.09404400  0.38604066    -0.07650
C404        C  0.04785040  0.06892024  0.39230376     0.13210
C405        C  0.04017951  0.03620078  0.39926766    -0.24480
H406        H  0.00015570  0.05511597  0.39745998     0.14500
H407        H  0.10676044  0.14366849  0.37891088     0.14530
C408        C  0.06569345  0.16226981  0.37752570    -0.24430
H409        H  0.01484066  0.01929202  0.40073445     0.04740
H410        H  0.05039344  0.03555409  0.42347038     0.07970
H411        H  0.04917558  0.02832289  0.37883119     0.07970
H412        H  0.05793672  0.16955359  0.39995901     0.07950
H413        H  0.05353169  0.16333814  0.35507589     0.07950
H414        H  0.09082421  0.17928548  0.37428970     0.04730
C415        C  0.30017749  0.10756940  0.33960176    -0.21080
C416        C  0.28198499  0.09796446  0.36850869    -0.07640
C417        C  0.29324609  0.09025169  0.39701079     0.13230
C418        C  0.32066709  0.08987085  0.39462567    -0.21130
C419        C  0.33743122  0.09691008  0.36479718    -0.07650
C420        C  0.32765031  0.10729338  0.33728370     0.13210
C421        C  0.34557491  0.11801930  0.30511997    -0.24480
H422        H  0.29237492  0.11449857  0.31810061     0.14500
H423        H  0.32843525  0.08284150  0.41606986     0.14530
C424        C  0.27647084  0.08144067  0.42996422    -0.24430
H425        H  0.33539215  0.12715074  0.28751724     0.04740
H426        H  0.34535339  0.09815568  0.29222592     0.07970
H427        H  0.36972965  0.13721032  0.31042191     0.07970
H428        H  0.25346020  0.05966076  0.42693507     0.07950
H429        H  0.27386396  0.10084574  0.43948477     0.07950
H430        H  0.28926292  0.07696091  0.44932108     0.04730
C431        C  0.02381695  0.35270100  0.46711508    -0.21080
C432        C  0.49177625  0.33916137  0.46742828    -0.07640
C433        C  0.47564084  0.32914081  0.99822930     0.13230
C434        C  0.49238739  0.33615976  0.02820687    -0.21130
C435        C  0.02464012  0.35319614  0.02807030    -0.07650
C436        C  0.04055797  0.36006832  0.49716831     0.13210
C437        C  0.07530039  0.37580111  0.49572655    -0.24480
H438        H  0.03596043  0.35961404  0.44353715     0.14500
H439        H  0.48036513  0.33057191  0.05187892     0.14530
C440        C  0.44076136  0.31151897  0.99990937    -0.24430
H441        H  0.08348211  0.37732793  0.46967261     0.04740
H442        H  0.08272441  0.36213833  0.51019683     0.07970
H443        H  0.08673881  0.40002167  0.00600594     0.07970
H444        H  0.43079781  0.29042717  0.48340830     0.07950
H445        H  0.43190797  0.32659998  0.99237517     0.07950
H446        H  0.43235232  0.30359873  0.02563022     0.04730
C447        C  0.46655813  0.33724356  0.24408259    -0.21080
C448        C  0.48155347  0.36002383  0.26945020    -0.07640
C449        C  0.01292556  0.38369793  0.26545643     0.13230
C450        C  0.02841030  0.38369703  0.23666297    -0.21130
C451        C  0.01404958  0.36067509  0.21152707    -0.07650
C452        C  0.48222386  0.33750585  0.21484884     0.13210
C453        C  0.46448071  0.31318387  0.18800135    -0.24480
H454        H  0.44243707  0.31916966  0.24720454     0.14500
H455        H  0.05229217  0.40212005  0.23387544     0.14530
C456        C  0.03105784  0.40823373  0.29199531    -0.24430
H457        H  0.43996935  0.29702801  0.19508886     0.04740
H458        H  0.47509197  0.29893095  0.18352353     0.07970
H459        H  0.46450365  0.32478859  0.16460163     0.07970
H460        H  0.03204703  0.39675827  0.31490678     0.07950
H461        H  0.02031261  0.42219700  0.29707907     0.07950
H462        H  0.05531846  0.42484079  0.28441429     0.04730
C463        C  0.43487786  0.46537124  0.34606436    -0.21080
C464        C  0.42567042  0.44259381  0.37067984    -0.07640
C465        C  0.41757205  0.44850841  0.40270564     0.13230
C466        C  0.41743833  0.47608558  0.40858351    -0.21130
C467        C  0.42481145  0.49770354  0.38325401    -0.07650
C468        C  0.43457537  0.49276453  0.35194575     0.13210
C469        C  0.44504491  0.51643651  0.32472527    -0.24480
H470        H  0.44176748  0.46149116  0.32170861     0.14500
H471        H  0.41048081  0.48028876  0.43275382     0.14530
C472        C  0.40930963  0.42629092  0.43099657    -0.24430
H473        H  0.45368848  0.50973311  0.30259224     0.04740
H474        H  0.46395724  0.03961482  0.33411773     0.07970
H475        H  0.42523533  0.51809854  0.31646026     0.07970
H476        H  0.42834174  0.42192122  0.43509876     0.07950
H477        H  0.38738566  0.40413822  0.42501030     0.07950
H478        H  0.40576614  0.43576397  0.45471337     0.04730
C479        C  0.40843138  0.18917251  0.40118470    -0.21080
C480        C  0.42760215  0.18841825  0.37625106    -0.07640
C481        C  0.44572291  0.21503798  0.35656531     0.13230
C482        C  0.44347602  0.24120247  0.36147610    -0.21130
C483        C  0.42412955  0.24216254  0.38586783    -0.07650
C484        C  0.40647131  0.21594678  0.40628983     0.13210
C485        C  0.38511850  0.21576057  0.43256571    -0.24480
H486        H  0.39484541  0.16873668  0.41640466     0.14500
H487        H  0.45779544  0.26161503  0.34646223     0.14530
C488        C  0.46897387  0.21714658  0.33151402    -0.24430
H489        H  0.37210054  0.19282179  0.44512668     0.04740
H490        H  0.36812218  0.22043089  0.42094128     0.07970
H491        H  0.39866720  0.23395770  0.45194497     0.07970
H492        H  0.45736702  0.19896266  0.31176737     0.07950
H493        H  0.98680456  0.21469479  0.34449239     0.07950
H494        H  0.98122238  0.24006960  0.31884820     0.04730
C495        C  0.06621583  0.48547022  0.35873465    -0.21080
C496        C  0.09242140  0.48509566  0.36913330    -0.07640
C497        C  0.08790851  0.45598022  0.37958094     0.13230
C498        C  0.05753180  0.42981257  0.38291356    -0.21130
C499        C  0.03124873  0.43114127  0.37493270    -0.07650
C500        C  0.03602740  0.45948179  0.36192926     0.13210
C501        C  0.00968813  0.46248616  0.34980574    -0.24480
H502        H  0.06933937  0.00658747  0.34805550     0.14500
H503        H  0.05438347  0.40781269  0.39105558     0.14530
C504        C  0.11410311  0.45071745  0.38586606    -0.24430
H505        H  0.01769452  0.48595186  0.33955248     0.04740
H506        H  0.49383253  0.45880788  0.37074210     0.07970
H507        H  0.49738030  0.44525811  0.32934392     0.07970
H508        H  0.11620932  0.44811639  0.41303485     0.07950
H509        H  0.13650180  0.46940316  0.37597987     0.07950
H510        H  0.10923635  0.42890986  0.37270159     0.04730
C511        C  0.30403880  0.24375029  0.39353162    -0.21080
C512        C  0.33016695  0.24675415  0.37800798    -0.07640
C513        C  0.32759447  0.22072371  0.36062288     0.13230
C514        C  0.29911855  0.19211065  0.36037203    -0.21130
C515        C  0.27303992  0.18899914  0.37652376    -0.07650
C516        C  0.27553019  0.21538376  0.39302466     0.13210
C517        C  0.24800376  0.21450209  0.40853032    -0.24480
H518        H  0.30574792  0.26414560  0.40522502     0.14500
H519        H  0.29714472  0.17215486  0.34699785     0.14530
C520        C  0.35402620  0.22220865  0.34184974    -0.24430
H521        H  0.25405454  0.23770407  0.41897780     0.04740
H522        H  0.23891087  0.19766758  0.42930874     0.07970
H523        H  0.22976060  0.20760682  0.38926339     0.07970
H524        H  0.35983486  0.20572845  0.35288270     0.07950
H525        H  0.37493358  0.24593108  0.34218554     0.07950
H526        H  0.34718510  0.21533451  0.31532712     0.04730
C527        C  0.33062603  0.33930586  0.51115591    -0.21080
C528        C  0.35310882  0.36358278  0.03167718    -0.07640
C529        C  0.38377484  0.38171253  0.02013390     0.13230
C530        C  0.39135315  0.37471575  0.98912943    -0.21130
C531        C  0.36903827  0.35122136  0.46778292    -0.07650
C532        C  0.33824638  0.33290106  0.47924186     0.13210
C533        C  0.31381602  0.30599166  0.45877067    -0.24480
H534        H  0.30686187  0.32616074  0.51955801     0.14500
H535        H  0.41524359  0.38835965  0.98128781     0.14530
C536        C  0.40879834  0.40913305  0.04000366    -0.24430
H537        H  0.29102502  0.29418351  0.47141574     0.04740
H538        H  0.32080418  0.28859583  0.45513135     0.07970
H539        H  0.31106441  0.31435077  0.43428286     0.07970
H540        H  0.41188869  0.40094323  0.06421066     0.07950
H541        H  0.40276524  0.42721190  0.04419078     0.07950
H542        H  0.43145267  0.42056695  0.02708652     0.04730
C543        C  0.36873924  0.33665991  0.25368548    -0.21080
C544        C  0.36363454  0.35063746  0.28159049    -0.07640
C545        C  0.35051224  0.36916791  0.27667309     0.13230
C546        C  0.34394670  0.37412413  0.24402971    -0.21130
C547        C  0.35031905  0.36131769  0.21586114    -0.07650
C548        C  0.36220988  0.34163913  0.22099423     0.13210
C549        C  0.37036472  0.32772710  0.19221399    -0.24480
H550        H  0.37911025  0.32273999  0.25743370     0.14500
H551        H  0.33496720  0.38929582  0.24042615     0.14530
C552        C  0.34540849  0.38562481  0.30549951    -0.24430
H553        H  0.38008763  0.31363131  0.20074410     0.04740
H554        H  0.38809342  0.34693179  0.17680693     0.07970
H555        H  0.34943214  0.31215255  0.17693758     0.07970
H556        H  0.36764867  0.40131270  0.31872995     0.07950
H557        H  0.32852546  0.36813517  0.32312850     0.07950
H558        H  0.33612994  0.40013998  0.29703582     0.04730
O559        O  0.44146943  0.41365374  0.83757019    -0.80910
O560        O  0.45715998  0.34816532  0.93942647    -0.80930
O561        O  0.36605708  0.33391213  0.90920245    -0.80940
O562        O  0.49766159  0.37623416  0.86403674    -0.80880
O563        O  0.40836955  0.35205309  0.93666720    -0.81000
O564        O  0.47570671  0.40211116  0.88149321    -0.80920
O565        O  0.47834480  0.32823219  0.90882841    -0.80910
O566        O  0.40951743  0.38825760  0.87869429    -0.80950
C567        C  0.42531821  0.41355431  0.86174206     1.08780
C568        C  0.47579029  0.33918301  0.93672254     1.08670
C569        C  0.38102162  0.34532917  0.93626797     1.08800
C570        C  0.49994319  0.40153413  0.87474137     1.08680
O571        O  0.46678470  0.38046959  0.81522987    -0.80910
O572        O  0.37145837  0.28681744  0.91027928    -0.80990
O573        O  0.36091382  0.34397801  0.84124577    -0.80920
O574        O  0.43010702  0.28692774  0.86182371    -0.80900
O575        O  0.42248225  0.28319463  0.91584984    -0.80950
O576        O  0.40394764  0.35404342  0.81613547    -0.80920
O577        O  0.45136331  0.33127703  0.81558233    -0.80880
O578        O  0.36953140  0.29548692  0.85662399    -0.80950
Co579      Co  0.43870475  0.37673351  0.85250020     1.51530
Co580      Co  0.41558899  0.31913050  0.92362892     1.51690
Co581      Co  0.39117507  0.34091923  0.86641505     1.51570
Co582      Co  0.46222133  0.33090840  0.86290901     1.51470
O583        O  0.42883439  0.33886893  0.87858721    -1.42840
C584        C  0.46511520  0.35703790  0.80098435     1.08710
C585        C  0.35925727  0.27740356  0.88133582     1.08800
C586        C  0.37637114  0.34939939  0.81455195     1.08740
C587        C  0.42416823  0.27151857  0.88813777     1.08710
O588        O  0.46273094  0.12404976  0.81298863    -0.80910
O589        O  0.42997726  0.04017035  0.91611700    -0.80930
O590        O  0.99722420  0.12524437  0.87383214    -0.80940
O591        O  0.36996143  0.03879968  0.83617031    -0.80880
O592        O  0.48283756  0.09368483  0.91535755    -0.81000
O593        O  0.41199741  0.06888198  0.80834770    -0.80920
O594        O  0.40727776  0.03115891  0.86880052    -0.80910
O595        O  0.48420488  0.16440444  0.84626696    -0.80950
C596        C  0.48113216  0.15274795  0.81713695     1.08780
C597        C  0.42086075  0.02441192  0.88956503     1.08670
C598        C  0.00173160  0.10816152  0.89236415     1.08800
C599        C  0.38656520  0.04375150  0.81013331     1.08680
O600        O  0.37608758  0.09255257  0.83530726    -0.80910
O601        O  0.45429678  0.12778249  0.93946148    -0.80990
O602        O  0.43687520  0.14995958  0.89594658    -0.80920
O603        O  0.36131412  0.02724921  0.91013539    -0.80900
O604        O  0.39613291  0.06987509  0.93707308    -0.80950
O605        O  0.42798599  0.14955656  0.84252200    -0.80920
O606        O  0.37323567  0.08466045  0.88841067    -0.80880
O607        O  0.49582562  0.16715954  0.91721681    -0.80950
Co608      Co  0.42060022  0.10782744  0.82754720     1.51530
Co609      Co  0.43987322  0.08410609  0.92204583     1.51690
Co610      Co  0.46622555  0.13600703  0.88624410     1.51570
Co611      Co  0.39190235  0.05864479  0.88072080     1.51470
O612        O  0.43260443  0.09450667  0.87026525    -1.42840
C613        C  0.36391051  0.09187445  0.86296436     1.08710
C614        C  0.48228805  0.15094427  0.94286982     1.08800
C615        C  0.42975887  0.16054454  0.87166491     1.08740
C616        C  0.37276794  0.04163521  0.93801940     1.08710
O617        O  0.02410898  0.39279816  0.61852706    -0.80910
O618        O  0.15198661  0.48135370  0.59280124    -0.80930
O619        O  0.09097863  0.47547008  0.67432589    -0.80940
O620        O  0.06031086  0.39769589  0.55838844    -0.80880
O621        O  0.11463784  0.48811510  0.62803442    -0.81000
O622        O  0.03777018  0.35496341  0.58645521    -0.80920
O623        O  0.11090687  0.45318084  0.56151293    -0.80910
O624        O  0.03753110  0.42316933  0.66238966    -0.80950
C625        C  0.01958182  0.40987859  0.63787196     1.08780
C626        C  0.13625059  0.47827669  0.56654777     1.08670
C627        C  0.10195271  0.49444072  0.65091104     1.08800
C628        C  0.04132558  0.36890689  0.55918355     1.08680
O629        O  0.08242272  0.36511624  0.63756863    -0.80910
O630        O  0.15866701  0.48642746  0.66688358    -0.80990
O631        O  0.06223487  0.38498553  0.68174819    -0.80920
O632        O  0.14585255  0.42799206  0.58418153    -0.80900
O633        O  0.14734782  0.43155785  0.63801749    -0.80950
O634        O  0.02223645  0.34670406  0.65573731    -0.80920
O635        O  0.09418503  0.36980638  0.58476830    -0.80880
O636        O  0.12229457  0.44304720  0.69103359    -0.80950
Co637      Co  0.05405641  0.38041898  0.62951641     1.51530
Co638      Co  0.12874082  0.45823738  0.63482156     1.51690
Co639      Co  0.07936839  0.43065294  0.67242624     1.51570
Co640      Co  0.10179345  0.41288658  0.57525842     1.51470
O641        O  0.08867700  0.42357638  0.61963524    -1.42840
C642        C  0.09091760  0.35628711  0.61235558     1.08710
C643        C  0.14706185  0.47071551  0.69352207     1.08800
C644        C  0.03337458  0.36332188  0.68224725     1.08740
C645        C  0.15790905  0.42727454  0.61122419     1.08710
O646        O  0.18846251  0.15167202  0.84469146    -0.80910
O647        O  0.14547479  0.01891705  0.88843321    -0.80930
O648        O  0.17683310  0.05994371  0.81142135    -0.80940
O649        O  0.10434100  0.06991612  0.90754889    -0.80880
O650        O  0.19385380  0.03801819  0.84506512    -0.81000
O651        O  0.13171882  0.10853004  0.87300192    -0.80920
O652        O  0.12312725  0.04083607  0.86374049    -0.80910
O653        O  0.17371348  0.11129721  0.81243080    -0.80950
C654        C  0.17921533  0.13858729  0.81658044     1.08780
C655        C  0.12236812  0.01623516  0.87261450     1.08670
C656        C  0.18335304  0.03945572  0.81671137     1.08800
C657        C  0.10587721  0.09048619  0.88870680     1.08680
O658        O  0.17578078  0.15775209  0.90732642    -0.80910
O659        O  0.23451176  0.08709151  0.89283267    -0.80990
O660        O  0.23564735  0.14652553  0.84317364    -0.80920
O661        O  0.13978302  0.05132287  0.93257170    -0.80900
O662        O  0.18817500  0.06682009  0.93733758    -0.80950
O663        O  0.22388653  0.14837487  0.89615015    -0.80920
O664        O  0.15965338  0.11286989  0.93219027    -0.80880
O665        O  0.23913661  0.09463575  0.83895721    -0.80950
Co666      Co  0.17929597  0.12626235  0.88558641     1.51530
Co667      Co  0.19034720  0.05524036  0.89040027     1.51690
Co668      Co  0.20448289  0.10218373  0.82865250     1.51570
Co669      Co  0.14313271  0.07754196  0.89449700     1.51470
O670        O  0.18285282  0.08904995  0.87309321    -1.42840
C671        C  0.16447855  0.14104717  0.93273459     1.08710
C672        C  0.25064740  0.09387426  0.86691773     1.08800
C673        C  0.24292057  0.15934953  0.87217089     1.08740
C674        C  0.16164578  0.05373761  0.94984765     1.08710
O675        O  0.03319128  0.12011810  0.67394045    -0.80910
O676        O  0.12089268  0.20224392  0.55178520    -0.80930
O677        O  0.02842928  0.17379813  0.59853116    -0.80940
O678        O  0.09377680  0.11896962  0.62469807    -0.80880
O679        O  0.06242931  0.16496817  0.57328953    -0.81000
O680        O  0.08449916  0.11510857  0.67816960    -0.80920
O681        O  0.12554515  0.16650687  0.57798013    -0.80910
O682        O  0.03624328  0.12726169  0.62044222    -0.80950
C683        C  0.02206082  0.11025498  0.64478574     1.08780
C684        C  0.12601814  0.18000609  0.55095246     1.08670
C685        C  0.03849069  0.16779759  0.57205624     1.08800
C686        C  0.08761736  0.10341339  0.65115083     1.08680
O687        O  0.12001515  0.17885390  0.70560994    -0.80910
O688        O  0.09571744  0.22954692  0.59068957    -0.80990
O689        O  0.03204465  0.16970232  0.66954787    -0.80920
O690        O  0.16440909  0.20646855  0.63209442    -0.80900
O691        O  0.14315620  0.23101890  0.61271058    -0.80950
O692        O  0.07173116  0.18477783  0.70135302    -0.80920
O693        O  0.13962616  0.15849131  0.67361173    -0.80880
O694        O  0.07520506  0.21876078  0.63884284    -0.80950
Co695      Co  0.07838036  0.15152252  0.68690575     1.51530
Co696      Co  0.10415615  0.19526664  0.59601493     1.51690
Co697      Co  0.05737795  0.17346461  0.62835895     1.51570
Co698      Co  0.12717369  0.16340068  0.62816695     1.51470
O699        O  0.09506462  0.17601419  0.64320256    -1.42840
C700        C  0.13939034  0.17084808  0.70111560     1.08710
C701        C  0.08668434  0.23796456  0.61563680     1.08800
C702        C  0.04554922  0.18079196  0.69754710     1.08740
C703        C  0.16591817  0.23169405  0.62549338     1.08710
O704        O  0.41141248  0.43690540  0.65878665    -0.80910
O705        O  0.34000556  0.44981301  0.55362391    -0.80930
O706        O  0.33317752  0.36150051  0.58731683    -0.80940
O707        O  0.37697685  0.49397985  0.63298683    -0.80880
O708        O  0.34552866  0.40120703  0.55600960    -0.81000
O709        O  0.39964756  0.46970994  0.61327393    -0.80920
O710        O  0.32799827  0.47599935  0.58850903    -0.80910
O711        O  0.38637184  0.40418662  0.61748203    -0.80950
C712        C  0.41065276  0.41862903  0.63622287     1.08780
C713        C  0.33583617  0.47191602  0.55952451     1.08670
C714        C  0.34328778  0.37547581  0.55987212     1.08800
C715        C  0.40124160  0.49501012  0.62178056     1.08680
O716        O  0.37950413  0.46238660  0.67987428    -0.80910
O717        O  0.28408361  0.36409927  0.58715024    -0.80990
O718        O  0.34367634  0.35681896  0.65551591    -0.80920
O719        O  0.28605920  0.43002989  0.63605774    -0.80900
O720        O  0.27924094  0.41615512  0.58303569    -0.80950
O721        O  0.35270196  0.40038661  0.67982462    -0.80920
O722        O  0.33141294  0.44833148  0.68097069    -0.80880
O723        O  0.29596264  0.36531113  0.64034757    -0.80950
Co724      Co  0.37473677  0.43368754  0.64273368     1.51530
Co725      Co  0.31392190  0.40870069  0.57257240     1.51690
Co726      Co  0.34018931  0.38700408  0.62992669     1.51570
Co727      Co  0.33089830  0.45958391  0.63386413     1.51470
O728        O  0.33692267  0.42435867  0.61686152    -1.42840
C729        C  0.35720912  0.46108918  0.69531293     1.08710
C730        C  0.27737171  0.35235367  0.61621607     1.08800
C731        C  0.34868093  0.37286089  0.68217110     1.08740
C732        C  0.26911782  0.42055321  0.61042610     1.08710
C733        C  0.43524396  0.04855201  0.64717821    -0.21080
C734        C  0.43235328  0.02523016  0.62466849    -0.07640
C735        C  0.45968734  0.03049121  0.60850760     0.13230
C736        C  0.48850140  0.05816901  0.61568598    -0.21130
C737        C  0.49126120  0.08069989  0.63912096    -0.07650
C738        C  0.46401411  0.07589663  0.65452319     0.13210
C739        C  0.46487547  0.10029224  0.67765098    -0.24480
H740        H  0.41483387  0.04521490  0.65977063     0.14500
H741        H  0.00917338  0.06213789  0.60312224     0.14530
C742        C  0.45888143  0.00744778  0.58328503    -0.24430
H743        H  0.44154874  0.09317772  0.68717559     0.04740
H744        H  0.47376175  0.12238391  0.66388836     0.07970
H745        H  0.48002693  0.10437271  0.69948503     0.07970
H746        H  0.44202982  0.50305183  0.56311730     0.07950
H747        H  0.45235806  0.48514446  0.59552792     0.07950
H748        H  0.48181992  0.01633884  0.57157358     0.04730
C749        C  0.22256478  0.26451362  0.62006860    -0.21080
C750        C  0.19498220  0.26238474  0.62972708    -0.07640
C751        C  0.19524220  0.29029003  0.63742660     0.13230
C752        C  0.22241642  0.31943711  0.63260213    -0.21130
C753        C  0.24939615  0.32137498  0.62112411    -0.07650
C754        C  0.24971672  0.29364801  0.61552678     0.13210
C755        C  0.27839294  0.29460705  0.60378358    -0.24480
H756        H  0.22245129  0.24329196  0.61410537     0.14500
H757        H  0.22252476  0.34078121  0.63778654     0.14530
C758        C  0.16762848  0.29036623  0.65131649    -0.24430
H759        H  0.27461708  0.27078093  0.60093667     0.04740
H760        H  0.29738846  0.30782459  0.62216329     0.07970
H761        H  0.28525724  0.30593760  0.57910647     0.07970
H762        H  0.14816165  0.26671160  0.65755334     0.07950
H763        H  0.15956509  0.30105276  0.63308536     0.07950
H764        H  0.17440356  0.30451067  0.67483209     0.04730
C765        C  0.15297039  0.18039558  0.76121402    -0.21080
C766        C  0.15771182  0.17079077  0.72970377    -0.07640
C767        C  0.17603568  0.15705219  0.72747044     0.13230
C768        C  0.18480183  0.14910184  0.75684554    -0.21130
C769        C  0.17613337  0.15472934  0.78809321    -0.07650
C770        C  0.16205576  0.17252924  0.79054509     0.13210
C771        C  0.15439365  0.18104839  0.82377626    -0.24480
H772        H  0.14015627  0.19213304  0.76315121     0.14500
H773        H  0.19704175  0.13672587  0.75538722     0.14530
C774        C  0.18545329  0.14918794  0.69472899    -0.24430
H775        H  0.14195024  0.19369037  0.82111084     0.04740
H776        H  0.17594172  0.19626540  0.83830441     0.07970
H777        H  0.13942320  0.15934361  0.83756020     0.07970
H778        H  0.19688602  0.17019580  0.67879376     0.07950
H779        H  0.16500072  0.12965792  0.68168373     0.07950
H780        H  0.20213003  0.14146612  0.69845376     0.04730
C781        C  0.14427261  0.13298856  0.48985841    -0.21080
C782        C  0.15579018  0.15277598  0.96249990    -0.07640
C783        C  0.15566481  0.18111571  0.96342820     0.13230
C784        C  0.14499738  0.18901444  0.49218425    -0.21130
C785        C  0.13406096  0.16932865  0.51981313    -0.07650
C786        C  0.13315642  0.14044505  0.51810297     0.13210
C787        C  0.12045538  0.11666700  0.54553754    -0.24480
H788        H  0.14369695  0.11107362  0.48920988     0.14500
H789        H  0.14563588  0.21095116  0.49325328     0.14530
C790        C  0.16625322  0.20316970  0.93444921    -0.24430
H791        H  0.11874994  0.09440203  0.53798280     0.04740
H792        H  0.09679114  0.11082281  0.55227606     0.07970
H793        H  0.13619562  0.12598701  0.56750728     0.07970
H794        H  0.15177330  0.19099269  0.91206978     0.07950
H795        H  0.19090970  0.21199279  0.92907558     0.07950
H796        H  0.16424283  0.22383142  0.93979692     0.04730
C797        C  0.12021699  0.49670681  0.01916834    -0.21080
C798        C  0.14463045  0.50231962  0.54061011    -0.07640
C799        C  0.17462480  0.02778663  0.53408513     0.13230
C800        C  0.17952143  0.04540940  0.50499465    -0.21130
C801        C  0.15514557  0.03773799  0.98231258    -0.07650
C802        C  0.12497054  0.51281214  0.98982570     0.13210
C803        C  0.09746345  0.50101562  0.96649541    -0.24480
H804        H  0.09672713  0.47822311  0.02453889     0.14500
H805        H  0.20262340  0.06459033  0.49942033     0.14530
C806        C  0.20134403  0.03595351  0.55697892    -0.24430
H807        H  0.07628885  0.48014696  0.97620577     0.04740
H808        H  0.10253485  0.49381438  0.94217384     0.07970
H809        H  0.09178502  0.51935047  0.96300205     0.07970
H810        H  0.20480706  0.01590149  0.55832165     0.07950
H811        H  0.19656875  0.04162391  0.58234560     0.07950
H812        H  0.22316676  0.05658255  0.54807538     0.04730
C813        C  0.15759550  0.98759514  0.78795972    -0.21080
C814        C  0.18067115  0.01929617  0.78802550    -0.07640
C815        C  0.19677610  0.03285580  0.75816786     0.13230
C816        C  0.18703609  0.01536950  0.72819042    -0.21130
C817        C  0.16129274  0.48458507  0.72704339    -0.07650
C818        C  0.14773158  0.46993281  0.75793627     0.13210
C819        C  0.12176378  0.43633594  0.75980746    -0.24480
H820        H  0.14558270  0.97728379  0.81103595     0.14500
H821        H  0.19851786  0.02663883  0.70522896     0.14530
C822        C  0.22382645  0.06619940  0.75771181    -0.24430
H823        H  0.11525696  0.42867610  0.78599295     0.04740
H824        H  0.12869020  0.42087361  0.74771687     0.07970
H825        H  0.10112837  0.43367869  0.74734676     0.07970
H826        H  0.24184816  0.06903207  0.77558110     0.07950
H827        H  0.21631908  0.08269251  0.76471393     0.07950
H828        H  0.23446142  0.07272683  0.73258547     0.04730
C829        C  0.08593404  0.02915275  0.67840787    -0.21080
C830        C  0.09932531  0.02304534  0.65070010    -0.07640
C831        C  0.10833412  0.04354692  0.62327843     0.13230
C832        C  0.10316362  0.06850292  0.62410131    -0.21130
C833        C  0.08929774  0.07431752  0.65140919    -0.07650
C834        C  0.08033718  0.05393163  0.67896780     0.13210
C835        C  0.06425883  0.05743908  0.70890831    -0.24480
H836        H  0.07912464  0.01396676  0.69974262     0.14500
H837        H  0.11054850  0.08395486  0.60315058     0.14530
C838        C  0.12334052  0.03956279  0.59274303    -0.24430
H839        H  0.05686865  0.03805579  0.72672620     0.04740
H840        H  0.04323017  0.05718583  0.70072396     0.07970
H841        H  0.08012762  0.07959382  0.72262528     0.07970
H842        H  0.10709897  0.01663951  0.58063654     0.07950
H843        H  0.14519550  0.04102383  0.59985321     0.07950
H844        H  0.12919717  0.05792791  0.57401542     0.04730
C845        C  0.10677949  0.29097026  0.59235889    -0.21080
C846        C  0.08931071  0.26907376  0.61705117    -0.07640
C847        C  0.07427348  0.27720919  0.64148062     0.13230
C848        C  0.07645140  0.30627794  0.63980209    -0.21130
C849        C  0.09292066  0.32765923  0.61432566    -0.07650
C850        C  0.10878809  0.31996610  0.59060377     0.13210
C851        C  0.12829963  0.34214917  0.56357171    -0.24480
H852        H  0.11880997  0.28525879  0.57391873     0.14500
H853        H  0.06418167  0.31184876  0.65807716     0.14530
C854        C  0.05511726  0.25534135  0.66899526    -0.24430
H855        H  0.14075065  0.33318958  0.54889726     0.04740
H856        H  0.14585157  0.36487873  0.57503238     0.07970
H857        H  0.11359302  0.34552526  0.54584462     0.07970
H858        H  0.06988796  0.25056350  0.68511292     0.07950
H859        H  0.03587907  0.23310976  0.65811046     0.07950
H860        H  0.04467144  0.26547162  0.68527245     0.04730
C861        C  0.22694194  0.42208031  0.58140735    -0.21080
C862        C  0.23849333  0.41812817  0.61140651    -0.07640
C863        C  0.22209161  0.41510318  0.64135100     0.13230
C864        C  0.19561248  0.41747852  0.64038797    -0.21130
C865        C  0.18511123  0.42321855  0.61050266    -0.07650
C866        C  0.20110399  0.42523425  0.58039517     0.13210
C867        C  0.19223424  0.43174431  0.54682753    -0.24480
H868        H  0.23908846  0.42412901  0.55846732     0.14500
H869        H  0.18333927  0.41536360  0.66332816     0.14530
C870        C  0.23199500  0.40918078  0.67448192    -0.24430
H871        H  0.20813783  0.43348404  0.52669385     0.04740
H872        H  0.19324700  0.45440264  0.54788903     0.07970
H873        H  0.16869941  0.41249383  0.53943046     0.07970
H874        H  0.25440632  0.42988966  0.68250150     0.07950
H875        H  0.23411434  0.38828438  0.67243213     0.07950
H876        H  0.21500338  0.40480617  0.69443138     0.04730
C877        C  0.46676710  0.44240301  0.63976980    -0.21080
C878        C  0.43813481  0.41591850  0.63109718    -0.07640
C879        C  0.43712412  0.38805789  0.62080889     0.13230
C880        C  0.46451618  0.38743748  0.62160461    -0.21130
C881        C  0.49253846  0.41330701  0.63303882    -0.07650
C882        C  0.49375970  0.44148426  0.64093560     0.13210
C883        C  0.02347594  0.47102162  0.65002773    -0.24480
H884        H  0.46797502  0.46403893  0.64658134     0.14500
H885        H  0.46359313  0.36592968  0.61485419     0.14530
C886        C  0.40815734  0.35801518  0.61006535    -0.24430
H887        H  0.02051985  0.49138660  0.65278422     0.04740
H888        H  0.04056358  0.47634434  0.62995472     0.07970
H889        H  0.03217478  0.46820962  0.67424217     0.07970
H890        H  0.40540026  0.33842844  0.62531797     0.07950
H891        H  0.38670414  0.35829816  0.61261010     0.07950
H892        H  0.41035440  0.35271238  0.58353806     0.04730
C893        C  0.48881603  0.13060914  0.49564250    -0.21080
C894        C  0.49752899  0.15687705  0.97586832    -0.07640
C895        C  0.01989559  0.18696595  0.98822501     0.13230
C896        C  0.03228148  0.18988010  0.52037006    -0.21130
C897        C  0.02292093  0.16348590  0.54002478    -0.07650
C898        C  0.00101408  0.13354354  0.52765988     0.13210
C899        C  0.99071812  0.10477531  0.54812218    -0.24480
H900        H  0.47295309  0.10747489  0.48557290     0.14500
H901        H  0.04965697  0.21279662  0.53009728     0.14530
C902        C  0.03054730  0.21590679  0.96801829    -0.24430
H903        H  0.47312466  0.08310360  0.53472599     0.04740
H904        H  0.48037055  0.10665139  0.57184636     0.07970
H905        H  0.01085324  0.10253419  0.55386079     0.07970
H906        H  0.01041368  0.21780614  0.96117207     0.07950
H907        H  0.04223843  0.21481275  0.94503217     0.07950
H908        H  0.04728533  0.23747619  0.98217786     0.04730
C909        C  0.02943447  0.18967243  0.78818031    -0.21080
C910        C  0.49728243  0.17098524  0.78743307    -0.07640
C911        C  0.48145699  0.16431874  0.75634655     0.13230
C912        C  0.49833412  0.17160501  0.72663126    -0.21130
C913        C  0.03038489  0.18494687  0.72734365    -0.07650
C914        C  0.04640034  0.19702445  0.75845645     0.13210
C915        C  0.08124178  0.21622066  0.76127583    -0.24480
H916        H  0.04138308  0.19579443  0.81206910     0.14920
H917        H  0.48613991  0.16447852  0.70294621     0.14530
C918        C  0.44669235  0.14863503  0.75416165    -0.24430
H919        H  0.08893075  0.22703918  0.78655639     0.04740
H920        H  0.09077745  0.23547881  0.74301764     0.07970
H921        H  0.09114493  0.20129785  0.75711384     0.07970
H922        H  0.43913332  0.16263848  0.76824125     0.07950
H923        H  0.43489098  0.12472032  0.76425670     0.07950
H924        H  0.43869069  0.14649332  0.72792200     0.04730
C925        C  0.33289295  0.49697724  0.97166802    -0.21080
C926        C  0.35999450  0.02673601  0.97111548    -0.07640
C927        C  0.37589659  0.04014956  0.50203088     0.13230
C928        C  0.36535676  0.02282501  0.53152622    -0.21130
C929        C  0.33993025  0.49227846  0.53117632    -0.07650
C930        C  0.32286972  0.47954698  0.00113317     0.13210
C931        C  0.29421741  0.44726550  0.99996627    -0.24480
H932        H  0.32019416  0.48660980  0.94862277     0.14500
H933        H  0.37853495  0.03222688  0.55451573     0.14530
C934        C  0.40538339  0.07166698  0.50433764    -0.24430
H935        H  0.28322541  0.44123540  0.97481576     0.04740
H936        H  0.27717274  0.44626749  0.51803103     0.07970
H937        H  0.29990658  0.42939022  0.00627915     0.07970
H938        H  0.40136616  0.09019750  0.49578586     0.07950
H939        H  0.42312567  0.07099164  0.98886179     0.07950
H940        H  0.41463092  0.07792933  0.53025901     0.04730
C941        C  0.34910774  0.99380052  0.77928143    -0.21080
C942        C  0.37863449  0.02112716  0.78176449    -0.07640
C943        C  0.40088936  0.02687141  0.75633286     0.13230
C944        C  0.39288840  0.00543570  0.73023835    -0.21130
C945        C  0.36325515  0.47912570  0.72684569    -0.07650
C946        C  0.34094038  0.97292155  0.75173160     0.13210
C947        C  0.30884800  0.44433586  0.74966304    -0.24480
H948        H  0.33217986  0.98914911  0.79844152     0.14500
H949        H  0.40987487  0.51029442  0.71105087     0.14530
C950        C  0.43326528  0.05571723  0.75476032    -0.24430
H951        H  0.29502591  0.94230723  0.77208469     0.04740
H952        H  0.31019601  0.42297686  0.74774192     0.07970
H953        H  0.29646026  0.44560855  0.72755741     0.07970
H954        H  0.44688258  0.05827064  0.77743805     0.07950
H955        H  0.43191752  0.07685890  0.75138965     0.07950
H956        H  0.44678413  0.05482616  0.73338652     0.04730
C957        C  0.02346061  0.07436289  0.89260405    -0.21080
C958        C  0.02848508  0.10424418  0.88780348    -0.07640
C959        C  0.05882934  0.12942418  0.88164671     0.13230
C960        C  0.08340828  0.12400333  0.88109023    -0.21130
C961        C  0.07851244  0.09404417  0.88604050    -0.07650
C962        C  0.04785047  0.06892032  0.89230306     0.13210
C963        C  0.04017947  0.03620071  0.89926618    -0.24480
H964        H  0.00015573  0.05511602  0.89745898     0.14500
H965        H  0.10676074  0.14366881  0.87891178     0.14530
C966        C  0.06569378  0.16227021  0.87752679    -0.24430
H967        H  0.01484060  0.01929193  0.90073258     0.04740
H968        H  0.05039316  0.03555349  0.92346885     0.07970
H969        H  0.04917574  0.02832327  0.87882948     0.07970
H970        H  0.05793686  0.16955363  0.89996021     0.07950
H971        H  0.05353223  0.16333892  0.85507699     0.07950
H972        H  0.09082458  0.17928592  0.87429113     0.04730
C973        C  0.30017765  0.10756952  0.83960187    -0.21080
C974        C  0.28198503  0.09796437  0.86850872    -0.07640
C975        C  0.29324601  0.09025138  0.89701075     0.13230
C976        C  0.32066703  0.08987056  0.89462563    -0.21130
C977        C  0.33743129  0.09691003  0.86479721    -0.07650
C978        C  0.32765048  0.10729352  0.83728382     0.13210
C979        C  0.34557523  0.11801972  0.80512021    -0.24480
H980        H  0.29237516  0.11449885  0.81810079     0.14500
H981        H  0.32843510  0.08284104  0.91606976     0.14530
C982        C  0.27647061  0.08144006  0.92996408    -0.24430
H983        H  0.33539256  0.12715130  0.78751756     0.04740
H984        H  0.34535377  0.09815620  0.79222597     0.07970
H985        H  0.36972995  0.13721069  0.81042233     0.07970
H986        H  0.25345997  0.05966020  0.92693470     0.07950
H987        H  0.27386373  0.10084508  0.93948484     0.07950
H988        H  0.28926258  0.07696009  0.94932089     0.04730
C989        C  0.02381697  0.35270095  0.96711504    -0.21080
C990        C  0.49177627  0.33916135  0.96742823    -0.07640
C991        C  0.47564085  0.32914083  0.49822935     0.13230
C992        C  0.49238741  0.33615979  0.52820692    -0.21130
C993        C  0.02464013  0.35319619  0.52807033    -0.07650
C994        C  0.04055797  0.36006825  0.99716828     0.13210
C995        C  0.07530039  0.37580101  0.99572655    -0.24480
H996        H  0.03596046  0.35961398  0.94353712     0.14500
H997        H  0.48036516  0.33057194  0.55187897     0.14530
C998        C  0.44076136  0.31151898  0.49990944    -0.24430
H999        H  0.08348212  0.37732782  0.96967262     0.04740
H1000       H  0.08272438  0.36213821  0.01019684     0.07970
H1001       H  0.08673880  0.40002176  0.50600594     0.07970
H1002       H  0.43079781  0.29042715  0.98340823     0.07950
H1003       H  0.43190797  0.32659998  0.49237526     0.07950
H1004       H  0.43235234  0.30359874  0.52563030     0.04730
C1005       C  0.46655817  0.33724352  0.74408262    -0.21080
C1006       C  0.48155348  0.36002387  0.76945018    -0.07640
C1007       C  0.01292549  0.38369816  0.76545627     0.13230
C1008       C  0.02841023  0.38369728  0.73666281    -0.21130
C1009       C  0.01404960  0.36067515  0.71152705    -0.07650
C1010       C  0.48222391  0.33750581  0.71484889     0.13210
C1011       C  0.46448082  0.31318372  0.68800147    -0.24480
H1012       H  0.44243714  0.31916956  0.74720462     0.14500
H1013       H  0.05229203  0.40212044  0.73387515     0.14530
C1014       C  0.03105769  0.40823413  0.79199501    -0.24430
H1015       H  0.43996948  0.29702780  0.69508902     0.04740
H1016       H  0.47509217  0.29893089  0.68352371     0.07970
H1017       H  0.46450367  0.32478834  0.66460171     0.07970
H1018       H  0.03204697  0.39675885  0.81490658     0.07950
H1019       H  0.02031234  0.42219730  0.79707862     0.07950
H1020       H  0.05531828  0.42484126  0.78441394     0.04730
C1021       C  0.43487777  0.46537119  0.84606432    -0.21080
C1022       C  0.42567038  0.44259379  0.87067981    -0.07640
C1023       C  0.41757204  0.44850840  0.90270562     0.13230
C1024       C  0.41743829  0.47608555  0.90858348    -0.21130
C1025       C  0.42481137  0.49770350  0.88325397    -0.07650
C1026       C  0.43457527  0.49276448  0.85194570     0.13210
C1027       C  0.44504477  0.51643644  0.82472521    -0.24480
H1028       H  0.44176738  0.46149111  0.82170856     0.14500
H1029       H  0.41048080  0.48028874  0.93275380     0.14530
C1030       C  0.40930968  0.42629094  0.93099657    -0.24430
H1031       H  0.45368833  0.50973303  0.80259216     0.04740
H1032       H  0.46395749  0.03961491  0.83411777     0.07970
H1033       H  0.42523517  0.51809845  0.81646022     0.07970
H1034       H  0.42834181  0.42192126  0.93509872     0.07950
H1035       H  0.38738571  0.40413823  0.92501033     0.07950
H1036       H  0.40576622  0.43576400  0.95471338     0.04730
C1037       C  0.40843142  0.18917254  0.90118465    -0.21080
C1038       C  0.42760214  0.18841826  0.87625096    -0.07640
C1039       C  0.44572284  0.21503797  0.85656515     0.13230
C1040       C  0.44347595  0.24120245  0.86147596    -0.21130
C1041       C  0.42412954  0.24216256  0.88586775    -0.07650
C1042       C  0.40647135  0.21594681  0.90628979     0.13210
C1043       C  0.38511860  0.21576063  0.93256573    -0.24480
H1044       H  0.39484549  0.16873673  0.91640465     0.14500
H1045       H  0.45779534  0.26161500  0.84646204     0.14530
C1046       C  0.46897373  0.21714655  0.83151378    -0.24430
H1047       H  0.37210066  0.19282185  0.94512672     0.04740
H1048       H  0.36812226  0.22043094  0.92094135     0.07970
H1049       H  0.39866734  0.23395776  0.95194497     0.07970
H1050       H  0.45736684  0.19896260  0.81176717     0.07950
H1051       H  0.98680451  0.21469480  0.84449217     0.07950
H1052       H  0.98122225  0.24006956  0.81884799     0.04730
C1053       C  0.06621584  0.48547022  0.85873463    -0.21080
C1054       C  0.09242140  0.48509567  0.86913335    -0.07640
C1055       C  0.08790850  0.45598024  0.87958107     0.13230
C1056       C  0.05753179  0.42981260  0.88291366    -0.21130
C1057       C  0.03124873  0.43114129  0.87493273    -0.07650
C1058       C  0.03602741  0.45948179  0.86192924     0.13210
C1059       C  0.00968814  0.46248617  0.84980571    -0.24480
H1060       H  0.06933951  0.00658728  0.84805496     0.14500
H1061       H  0.05438345  0.40781272  0.89105573     0.14530
C1062       C  0.11410310  0.45071749  0.88586631    -0.24430
H1063       H  0.01769454  0.48595186  0.83955241     0.04740
H1064       H  0.49383255  0.45880791  0.87074204     0.07970
H1065       H  0.49738030  0.44525808  0.82934389     0.07970
H1066       H  0.11620933  0.44811656  0.91303513     0.07950
H1067       H  0.13650178  0.46940316  0.87598005     0.07950
H1068       H  0.10923634  0.42890985  0.87270197     0.04730
C1069       C  0.30403888  0.24375022  0.89353172    -0.21080
C1070       C  0.33016702  0.24675413  0.87800802    -0.07640
C1071       C  0.32759454  0.22072371  0.86062286     0.13230
C1072       C  0.29911864  0.19211065  0.86037202    -0.21130
C1073       C  0.27304001  0.18899909  0.87652379    -0.07650
C1074       C  0.27553028  0.21538369  0.89302476     0.13210
C1075       C  0.24800386  0.21450199  0.90853046    -0.24480
H1076       H  0.30574799  0.26414552  0.90522517     0.14500
H1077       H  0.29714481  0.17215488  0.84699779     0.14530
C1078       C  0.35402627  0.22220869  0.84184967    -0.24430
H1079       H  0.25405464  0.23770395  0.91897799     0.04740
H1080       H  0.23891098  0.19766745  0.92930886     0.07970
H1081       H  0.22976069  0.20760675  0.88926356     0.07970
H1082       H  0.35983496  0.20572850  0.85288257     0.07950
H1083       H  0.37493363  0.24593113  0.84218546     0.07950
H1084       H  0.34718514  0.21533457  0.81532704     0.04730
C1085       C  0.33062609  0.33930581  0.01115597    -0.21080
C1086       C  0.35310878  0.36358276  0.53167718    -0.07640
C1087       C  0.38377482  0.38171246  0.52013393     0.13230
C1088       C  0.39135313  0.37471570  0.48912945    -0.21130
C1089       C  0.36903831  0.35122136  0.96778294    -0.07650
C1090       C  0.33824644  0.33290100  0.97924192     0.13210
C1091       C  0.31381611  0.30599151  0.95877079    -0.24480
H1092       H  0.30686194  0.32616064  0.01955810     0.14500
H1093       H  0.41524357  0.38835958  0.48128785     0.14530
C1094       C  0.40879834  0.40913292  0.54000374    -0.24430
H1095       H  0.29102513  0.29418332  0.97141590     0.04740
H1096       H  0.32080435  0.28859574  0.95513149     0.07970
H1097       H  0.31106442  0.31435055  0.93428296     0.07970
H1098       H  0.41188863  0.40094304  0.56421073     0.07950
H1099       H  0.40276529  0.42721181  0.54419088     0.07950
H1100       H  0.43145268  0.42056679  0.52708663     0.04730
C1101       C  0.36873910  0.33665978  0.75368552    -0.21080
C1102       C  0.36363449  0.35063740  0.78159052    -0.07640
C1103       C  0.35051224  0.36916790  0.77667312     0.13230
C1104       C  0.34394668  0.37412410  0.74402974    -0.21130
C1105       C  0.35031895  0.36131760  0.71586117    -0.07650
C1106       C  0.36220971  0.34163898  0.72099427     0.13210
C1107       C  0.37036444  0.32772684  0.69221404    -0.24480
H1108       H  0.37911007  0.32273981  0.75743374     0.14500
H1109       H  0.33496722  0.38929583  0.74042618     0.14530
C1110       C  0.34540858  0.38562487  0.80549953    -0.24430
H1111       H  0.38008729  0.31363100  0.70074415     0.04740
H1112       H  0.38809315  0.34693148  0.67680694     0.07970
H1113       H  0.34943182  0.31215232  0.67693767     0.07970
H1114       H  0.36764878  0.40131275  0.81872993     0.07950
H1115       H  0.32852555  0.36813527  0.82312856     0.07950
H1116       H  0.33613006  0.40014007  0.79703584     0.04730
O1117       O  0.44146939  0.91365374  0.33757017    -0.80910
O1118       O  0.45715994  0.84816534  0.43942644    -0.80930
O1119       O  0.36605703  0.83391211  0.40920240    -0.80940
O1120       O  0.49766156  0.87623420  0.36403672    -0.80880
O1121       O  0.40836949  0.85205309  0.43666714    -0.81000
O1122       O  0.47570666  0.90211117  0.38149320    -0.80920
O1123       O  0.47834478  0.82823223  0.40882840    -0.80910
O1124       O  0.40951737  0.88825758  0.37869424    -0.80950
C1125       C  0.42531815  0.91355429  0.36174202     1.08780
C1126       C  0.47579027  0.83918304  0.43672252     1.08670
C1127       C  0.38102157  0.84532915  0.43626791     1.08800
C1128       C  0.49994316  0.90153415  0.37474136     1.08680
O1129       O  0.46678468  0.88046961  0.31522986    -0.80910
O1130       O  0.37145834  0.78681743  0.41027924    -0.80990
O1131       O  0.36091378  0.84397799  0.34124571    -0.80920
O1132       O  0.43010702  0.78692777  0.36182369    -0.80900
O1133       O  0.42248224  0.78319465  0.41584981    -0.80950
O1134       O  0.40394762  0.85404343  0.31613544    -0.80920
O1135       O  0.45136330  0.83127706  0.31558231    -0.80880
O1136       O  0.36953138  0.79548691  0.35662394    -0.80950
Co1137     Co  0.43870472  0.87673351  0.35250018     1.51530
Co1138     Co  0.41558896  0.81913050  0.42362889     1.51690
Co1139     Co  0.39117503  0.84091922  0.36641501     1.51570
Co1140     Co  0.46222132  0.83090843  0.36290899     1.51470
O1141       O  0.42883435  0.83886894  0.37858718    -1.42840
C1142       C  0.46511519  0.85703793  0.30098433     1.08710
C1143       C  0.35925725  0.77740355  0.38133578     1.08800
C1144       C  0.37637112  0.84939939  0.31455190     1.08740
C1145       C  0.42416823  0.77151859  0.38813774     1.08710
O1146       O  0.46273093  0.62404975  0.31298866    -0.80910
O1147       O  0.42997724  0.54017036  0.41611705    -0.80930
O1148       O  0.99722420  0.62524439  0.37383218    -0.80940
O1149       O  0.36996142  0.53879968  0.33617035    -0.80880
O1150       O  0.48283753  0.59368483  0.41535759    -0.81000
O1151       O  0.41199741  0.56888196  0.30834775    -0.80920
O1152       O  0.40727774  0.53115891  0.36880058    -0.80910
O1153       O  0.48420487  0.66440444  0.34626697    -0.80950
C1154       C  0.48113215  0.65274793  0.31713696     1.08780
C1155       C  0.42086073  0.52441192  0.38956509     1.08670
C1156       C  0.00173159  0.60816153  0.39236419     1.08800
C1157       C  0.38656520  0.54375149  0.31013335     1.08680
O1158       O  0.37608758  0.59255256  0.33530728    -0.80910
O1159       O  0.45429676  0.62778250  0.43946149    -0.80990
O1160       O  0.43687520  0.64995961  0.39594658    -0.80920
O1161       O  0.36131411  0.52724922  0.41013544    -0.80900
O1162       O  0.39613290  0.56987511  0.43707313    -0.80950
O1163       O  0.42798598  0.64955656  0.34252200    -0.80920
O1164       O  0.37323565  0.58466045  0.38841069    -0.80880
O1165       O  0.49582561  0.66715954  0.41721683    -0.80950
Co1166     Co  0.42060021  0.60782743  0.32754722     1.51530
Co1167     Co  0.43987320  0.58410610  0.42204586     1.51690
Co1168     Co  0.46622554  0.63600703  0.38624411     1.51570
Co1169     Co  0.39190233  0.55864480  0.38072084     1.51470
O1170       O  0.43260441  0.59450666  0.37026529    -1.42840
C1171       C  0.36391049  0.59187444  0.36296437     1.08710
C1172       C  0.48228802  0.65094426  0.44286984     1.08800
C1173       C  0.42975886  0.66054455  0.37166490     1.08740
C1174       C  0.37276793  0.54163523  0.43801945     1.08710
O1175       O  0.02410897  0.89279817  0.11852703    -0.80910
O1176       O  0.15198660  0.98135368  0.09280121    -0.80930
O1177       O  0.09097862  0.97547009  0.17432585    -0.80940
O1178       O  0.06031084  0.89769588  0.05838841    -0.80880
O1179       O  0.11463784  0.98811510  0.12803438    -0.81000
O1180       O  0.03777015  0.85496341  0.08645518    -0.80920
O1181       O  0.11090687  0.95318083  0.06151288    -0.80910
O1182       O  0.03753109  0.92316935  0.16238963    -0.80950
C1183       C  0.01958181  0.90987861  0.13787193     1.08780
C1184       C  0.13625059  0.97827668  0.06654774     1.08670
C1185       C  0.10195271  0.99444072  0.15091099     1.08800
C1186       C  0.04132556  0.86890689  0.05918352     1.08680
O1187       O  0.08242268  0.86511623  0.13756861    -0.80910
O1188       O  0.15866701  0.98642746  0.16688354    -0.80990
O1189       O  0.06223485  0.88498554  0.18174816    -0.80920
O1190       O  0.14585253  0.92799205  0.08418150    -0.80900
O1191       O  0.14734780  0.93155784  0.13801746    -0.80950
O1192       O  0.02223642  0.84670407  0.15573729    -0.80920
O1193       O  0.09418500  0.86980637  0.08476827    -0.80880
O1194       O  0.12229456  0.94304721  0.19103355    -0.80950
Co1195     Co  0.05405639  0.88041899  0.12951638     1.51530
Co1196     Co  0.12874081  0.95823738  0.13482153     1.51690
Co1197     Co  0.07936838  0.93065295  0.17242621     1.51570
Co1198     Co  0.10179343  0.91288657  0.07525839     1.51470
O1199       O  0.08867698  0.92357638  0.11963521    -1.42840
C1200       C  0.09091755  0.85628709  0.11235555     1.08710
C1201       C  0.14706184  0.97071552  0.19352203     1.08800
C1202       C  0.03337455  0.86332189  0.18224723     1.08740
C1203       C  0.15790903  0.92727452  0.11122416     1.08710
O1204       O  0.18846247  0.65167201  0.34469144    -0.80910
O1205       O  0.14547477  0.51891705  0.38843319    -0.80930
O1206       O  0.17683309  0.55994371  0.31142133    -0.80940
O1207       O  0.10434101  0.56991613  0.40754895    -0.80880
O1208       O  0.19385380  0.53801819  0.34506509    -0.81000
O1209       O  0.13171879  0.60853001  0.37300193    -0.80920
O1210       O  0.12312723  0.54083608  0.36374050    -0.80910
O1211       O  0.17371345  0.61129720  0.31243080    -0.80950
C1212       C  0.17921530  0.63858728  0.31658042     1.08780
C1213       C  0.12236809  0.51623517  0.37261450     1.08670
C1214       C  0.18335304  0.53945574  0.31671134     1.08800
C1215       C  0.10587719  0.59048617  0.38870684     1.08680
O1216       O  0.17578075  0.65775207  0.40732642    -0.80910
O1217       O  0.23451175  0.58709151  0.39283265    -0.80990
O1218       O  0.23564732  0.64652553  0.34317362    -0.80920
O1219       O  0.13978303  0.55132286  0.43257171    -0.80900
O1220       O  0.18817500  0.56682007  0.43733757    -0.80950
O1221       O  0.22388651  0.64837488  0.39615013    -0.80920
O1222       O  0.15965341  0.61286989  0.43219028    -0.80880
O1223       O  0.23913660  0.59463577  0.33895719    -0.80950
Co1224     Co  0.17929595  0.62626234  0.38558640     1.51530
Co1225     Co  0.19034719  0.55524036  0.39040025     1.51690
Co1226     Co  0.20448286  0.60218374  0.32865248     1.51570
Co1227     Co  0.14313272  0.57754196  0.39449702     1.51470
O1228       O  0.18285281  0.58904995  0.37309320    -1.42840
C1229       C  0.16447855  0.64104716  0.43273460     1.08710
C1230       C  0.25064739  0.59387427  0.36691771     1.08800
C1231       C  0.24292054  0.65934953  0.37217087     1.08740
C1232       C  0.16164579  0.55373759  0.44984764     1.08710
O1233       O  0.03319131  0.62011812  0.17394046    -0.80910
O1234       O  0.12089256  0.70224386  0.05178510    -0.80930
O1235       O  0.02842922  0.67379809  0.09853115    -0.80940
O1236       O  0.09377681  0.61896965  0.12469803    -0.80880
O1237       O  0.06242924  0.66496809  0.07328952    -0.81000
O1238       O  0.08449918  0.61510861  0.17816956    -0.80920
O1239       O  0.12554517  0.66650692  0.07798008    -0.80910
O1240       O  0.03624329  0.62726168  0.12044223    -0.80950
C1241       C  0.02206084  0.61025498  0.14478576     1.08780
C1242       C  0.12601808  0.68000607  0.05095238     1.08670
C1243       C  0.03849061  0.66779751  0.07205623     1.08800
C1244       C  0.08761737  0.60341342  0.15115079     1.08680
O1245       O  0.12001519  0.67885394  0.20560990    -0.80910
O1246       O  0.09571735  0.72954687  0.09068951    -0.80990
O1247       O  0.03204465  0.66970232  0.16954786    -0.80920
O1248       O  0.16440907  0.70646859  0.13209439    -0.80900
O1249       O  0.14315618  0.73101890  0.11271044    -0.80950
O1250       O  0.07173117  0.68477785  0.20135301    -0.80920
O1251       O  0.13962618  0.65849134  0.17361168    -0.80880
O1252       O  0.07520502  0.71876076  0.13884280    -0.80950
Co1253     Co  0.07838039  0.65152255  0.18690573     1.51530
Co1254     Co  0.10415610  0.69526661  0.09601485     1.51690
Co1255     Co  0.05737793  0.67346460  0.12835894     1.51570
Co1256     Co  0.12717369  0.66340071  0.12816690     1.51470
O1257       O  0.09506462  0.67601421  0.14320252    -1.42840
C1258       C  0.13939036  0.67084811  0.20111555     1.08710
C1259       C  0.08668427  0.73796452  0.11563674     1.08800
C1260       C  0.04554922  0.68079197  0.19754709     1.08740
C1261       C  0.16591814  0.73169407  0.12549328     1.08710
O1262       O  0.41141248  0.93690544  0.15878660    -0.80910
O1263       O  0.34000551  0.94981301  0.05362384    -0.80930
O1264       O  0.33317753  0.86150054  0.08731678    -0.80940
O1265       O  0.37697683  0.99397987  0.13298677    -0.80880
O1266       O  0.34552865  0.90120705  0.05600953    -0.81000
O1267       O  0.39964755  0.96970997  0.11327388    -0.80920
O1268       O  0.32799823  0.97599935  0.08850898    -0.80910
O1269       O  0.38637185  0.90418666  0.11748197    -0.80950
C1270       C  0.41065277  0.91862907  0.13622281     1.08780
C1271       C  0.33583612  0.97191601  0.05952445     1.08670
C1272       C  0.34328779  0.87547584  0.05987208     1.08800
C1273       C  0.40124159  0.99501015  0.12178051     1.08680
O1274       O  0.37950412  0.96238663  0.17987423    -0.80910
O1275       O  0.28408361  0.86409928  0.08715020    -0.80990
O1276       O  0.34367637  0.85681900  0.15551584    -0.80920
O1277       O  0.28605918  0.93002989  0.13605769    -0.80900
O1278       O  0.27924091  0.91615510  0.08303565    -0.80950
O1279       O  0.35270196  0.90038663  0.17982456    -0.80920
O1280       O  0.33141293  0.94833149  0.18097063    -0.80880
O1281       O  0.29596264  0.86531114  0.14034752    -0.80950
Co1282     Co  0.37473676  0.93368757  0.14273363     1.51530
Co1283     Co  0.31392188  0.90870069  0.07257235     1.51690
Co1284     Co  0.34018932  0.88700411  0.12992663     1.51570
Co1285     Co  0.33089828  0.95958393  0.13386407     1.51470
O1286       O  0.33692266  0.92435869  0.11686146    -1.42840
C1287       C  0.35720910  0.96108920  0.19531288     1.08710
C1288       C  0.27737171  0.85235368  0.11621603     1.08800
C1289       C  0.34868095  0.87286092  0.18217104     1.08740
C1290       C  0.26911779  0.92055319  0.11042606     1.08710
C1291       C  0.43524398  0.54855203  0.14717824    -0.21080
C1292       C  0.43235330  0.52523017  0.12466853    -0.07640
C1293       C  0.45968735  0.53049121  0.10850764     0.13230
C1294       C  0.48850141  0.55816901  0.11568601    -0.21130
C1295       C  0.49126122  0.58069989  0.13912099    -0.07650
C1296       C  0.46401413  0.57589664  0.15452322     0.13210
C1297       C  0.46487550  0.60029226  0.17765101    -0.24480
H1298       H  0.41483389  0.54521492  0.15977066     0.14500
H1299       H  0.00917340  0.56213789  0.10312228     0.14530
C1300       C  0.45888144  0.50744777  0.08328508    -0.24430
H1301       H  0.44154876  0.59317774  0.18717561     0.04740
H1302       H  0.47376177  0.62238392  0.16388838     0.07970
H1303       H  0.48002696  0.60437272  0.19948505     0.07970
H1304       H  0.44202984  0.00305183  0.06311729     0.07950
H1305       H  0.45235806  0.98514447  0.09552794     0.07950
H1306       H  0.48181993  0.51633882  0.07157362     0.04730
C1307       C  0.22256476  0.76451364  0.12006859    -0.21080
C1308       C  0.19498216  0.76238477  0.12972698    -0.07640
C1309       C  0.19524216  0.79029007  0.13742643     0.13230
C1310       C  0.22241639  0.81943714  0.13260200    -0.21130
C1311       C  0.24939615  0.82137500  0.12112406    -0.07650
C1312       C  0.24971672  0.79364802  0.11552679     0.13210
C1313       C  0.27839296  0.79460706  0.10378368    -0.24480
H1314       H  0.22245128  0.74329197  0.11410541     0.14500
H1315       H  0.22252473  0.84078125  0.13778635     0.14530
C1316       C  0.16762842  0.79036628  0.15131625    -0.24430
H1317       H  0.27461710  0.77078093  0.10093682     0.04740
H1318       H  0.29738844  0.80782460  0.12216342     0.07970
H1319       H  0.28525730  0.80593758  0.07910657     0.07970
H1320       H  0.14816158  0.76671165  0.15755309     0.07950
H1321       H  0.15956507  0.80105281  0.13308507     0.07950
H1322       H  0.17440347  0.80451074  0.17483183     0.04730
C1323       C  0.15297046  0.68039564  0.26121396    -0.21080
C1324       C  0.15771183  0.67079077  0.22970372    -0.07640
C1325       C  0.17603563  0.65705211  0.22747040     0.13230
C1326       C  0.18480176  0.64910175  0.25684551    -0.21130
C1327       C  0.17613336  0.65472933  0.28809317    -0.07650
C1328       C  0.16205583  0.67252931  0.29054504     0.13210
C1329       C  0.15439383  0.68104858  0.32377620    -0.24480
H1330       H  0.14015640  0.69213316  0.26315114     0.14500
H1331       H  0.19704162  0.63672573  0.25538719     0.14530
C1332       C  0.18545318  0.64918778  0.19472896    -0.24430
H1333       H  0.14195046  0.69369060  0.32111078     0.04740
H1334       H  0.17594195  0.69626559  0.33830428     0.07970
H1335       H  0.13942339  0.65934385  0.33756022     0.07970
H1336       H  0.19688594  0.67019563  0.17879370     0.07950
H1337       H  0.16500057  0.62965778  0.18168372     0.07950
H1338       H  0.20212986  0.64146590  0.19845372     0.04730
C1339       C  0.14427251  0.63298851  0.98985833    -0.21080
C1340       C  0.15579018  0.65277595  0.46249992    -0.07640
C1341       C  0.15566478  0.68111566  0.46342821     0.13230
C1342       C  0.14499739  0.68901445  0.99218420    -0.21130
C1343       C  0.13406091  0.66932863  0.01981306    -0.07650
C1344       C  0.13315631  0.64044501  0.01810288     0.13210
C1345       C  0.12045521  0.61666695  0.04553744    -0.24480
H1346       H  0.14369680  0.61107354  0.98920979     0.14500
H1347       H  0.14563594  0.71095120  0.99325325     0.14530
C1348       C  0.16625316  0.70316965  0.43444922    -0.24430
H1349       H  0.11874972  0.59440195  0.03798269     0.04740
H1350       H  0.09679099  0.61082281  0.05227595     0.07970
H1351       H  0.13619545  0.62598692  0.06750718     0.07970
H1352       H  0.15177324  0.69099263  0.41206980     0.07950
H1353       H  0.19090964  0.71199276  0.42907558     0.07950
H1354       H  0.16424275  0.72383136  0.43979693     0.04730
C1355       C  0.12021704  0.99670669  0.51916827    -0.21080
C1356       C  0.14463044  0.00231964  0.04061010    -0.07640
C1357       C  0.17462479  0.52778663  0.03408508     0.13230
C1358       C  0.17952141  0.54540940  0.00499460    -0.21130
C1359       C  0.15514558  0.53773796  0.48231257    -0.07650
C1360       C  0.12497061  0.01281201  0.48982562     0.13210
C1361       C  0.09746356  0.00101540  0.46649524    -0.24480
H1362       H  0.09672718  0.97822295  0.52453876     0.14500
H1363       H  0.20262339  0.56459029  0.99942023     0.14530
C1364       C  0.20134404  0.53595345  0.05697880    -0.24430
H1365       H  0.07628899  0.98014666  0.47620553     0.04740
H1366       H  0.10253509  0.99381424  0.44217369     0.07970
H1367       H  0.09178502  0.01935016  0.46300185     0.07970
H1368       H  0.20480701  0.51590139  0.05832150     0.07950
H1369       H  0.19656883  0.54162388  0.08234550     0.07950
H1370       H  0.22316678  0.55658245  0.04807523     0.04730
C1371       C  0.15759551  0.48759518  0.28795968    -0.21080
C1372       C  0.18067117  0.51929620  0.28802546    -0.07640
C1373       C  0.19677613  0.53285584  0.25816784     0.13230
C1374       C  0.18703611  0.51536954  0.22819038    -0.21130
C1375       C  0.16129272  0.98458509  0.22704336    -0.07650
C1376       C  0.14773155  0.96993283  0.25793623     0.13210
C1377       C  0.12176375  0.93633597  0.25980743    -0.24480
H1378       H  0.14558271  0.47728383  0.31103591     0.14500
H1379       H  0.19851788  0.52663888  0.20522892     0.14530
C1380       C  0.22382646  0.56619944  0.25771179    -0.24430
H1381       H  0.11525692  0.92867613  0.28599291     0.04740
H1382       H  0.12869017  0.92087364  0.24771683     0.07970
H1383       H  0.10112835  0.93367874  0.24734672     0.07970
H1384       H  0.24184818  0.56903211  0.27558108     0.07950
H1385       H  0.21631909  0.58269255  0.26471392     0.07950
H1386       H  0.23446144  0.57272688  0.23258546     0.04730
C1387       C  0.08593407  0.52915280  0.17840785    -0.21080
C1388       C  0.09932531  0.52304537  0.15070007    -0.07640
C1389       C  0.10833410  0.54354693  0.12327839     0.13230
C1390       C  0.10316361  0.56850293  0.12410126    -0.21130
C1391       C  0.08929775  0.57431755  0.15140916    -0.07650
C1392       C  0.08033721  0.55393168  0.17896778     0.13210
C1393       C  0.06425890  0.55743915  0.20890830    -0.24480
H1394       H  0.07912469  0.51396682  0.19974260     0.14500
H1395       H  0.11054846  0.58395485  0.10315052     0.14530
C1396       C  0.12334047  0.53956278  0.09274297    -0.24430
H1397       H  0.05686873  0.53805587  0.22672621     0.04740
H1398       H  0.04323023  0.55718590  0.20072397     0.07970
H1399       H  0.08012770  0.57959390  0.22262526     0.07970
H1400       H  0.10709890  0.51663949  0.08063651     0.07950
H1401       H  0.14519546  0.54102383  0.09985312     0.07950
H1402       H  0.12919710  0.55792789  0.07401535     0.04730
C1403       C  0.10677941  0.79097022  0.09235883    -0.21080
C1404       C  0.08931062  0.76907372  0.11705111    -0.07640
C1405       C  0.07427339  0.77720913  0.14148055     0.13230
C1406       C  0.07645131  0.80627789  0.13980203    -0.21130
C1407       C  0.09292060  0.82765919  0.11432561    -0.07650
C1408       C  0.10878802  0.81996606  0.09060372     0.13210
C1409       C  0.12829959  0.84214914  0.06357168    -0.24480
H1410       H  0.11880990  0.78525875  0.07391868     0.14500
H1411       H  0.06418158  0.81184871  0.15807709     0.14530
C1412       C  0.05511714  0.75534128  0.16899517    -0.24430
H1413       H  0.14075061  0.83318956  0.04889723     0.04740
H1414       H  0.14585153  0.86487869  0.07503237     0.07970
H1415       H  0.11359299  0.84552526  0.04584459     0.07970
H1416       H  0.06988782  0.75056343  0.18511285     0.07950
H1417       H  0.03587897  0.73310970  0.15811034     0.07950
H1418       H  0.04467130  0.76547155  0.18527234     0.04730
C1419       C  0.22694189  0.92208024  0.08140730    -0.21080
C1420       C  0.23849330  0.91812814  0.11140647    -0.07640
C1421       C  0.22209159  0.91510318  0.14135096     0.13230
C1422       C  0.19561246  0.91747851  0.14038794    -0.21130
C1423       C  0.18511120  0.92321852  0.11050263    -0.07650
C1424       C  0.20110393  0.92523419  0.08039513     0.13210
C1425       C  0.19223417  0.93174421  0.04682748    -0.24480
H1426       H  0.23908839  0.92412891  0.05846727     0.14500
H1427       H  0.18333927  0.91536362  0.16332813     0.14530
C1428       C  0.23199500  0.90918080  0.17448189    -0.24430
H1429       H  0.20813774  0.93348392  0.02669380     0.04740
H1430       H  0.19324694  0.95440254  0.04788896     0.07970
H1431       H  0.16869933  0.91249373  0.03943044     0.07970
H1432       H  0.25440632  0.92988969  0.18250145     0.07950
H1433       H  0.23411434  0.88828440  0.17243212     0.07950
H1434       H  0.21500339  0.90480620  0.19443135     0.04730
C1435       C  0.46676710  0.94240304  0.13976979    -0.21080
C1436       C  0.43813481  0.91591854  0.13109712    -0.07640
C1437       C  0.43712412  0.88805794  0.12080880     0.13230
C1438       C  0.46451618  0.88743752  0.12160453    -0.21130
C1439       C  0.49253845  0.91330703  0.13303879    -0.07650
C1440       C  0.49375969  0.94148428  0.14093560     0.13210
C1441       C  0.02347594  0.97102164  0.15002777    -0.24480
H1442       H  0.46797501  0.96403895  0.14658135     0.14500
H1443       H  0.46359313  0.86592972  0.11485409     0.14530
C1444       C  0.40815735  0.85801524  0.11006521    -0.24430
H1445       H  0.02051985  0.99138661  0.15278428     0.04740
H1446       H  0.04056359  0.97634437  0.12995478     0.07970
H1447       H  0.03217476  0.96820960  0.17424222     0.07970
H1448       H  0.40540025  0.83842848  0.12531782     0.07950
H1449       H  0.38670415  0.85829823  0.11260994     0.07950
H1450       H  0.41035444  0.85271248  0.08353791     0.04730
C1451       C  0.48881624  0.63060910  0.99564232    -0.21080
C1452       C  0.49752897  0.65687701  0.47586833    -0.07640
C1453       C  0.01989520  0.68696591  0.48822524     0.13230
C1454       C  0.03228107  0.68988009  0.02037030    -0.21130
C1455       C  0.02292084  0.66348582  0.04002478    -0.07650
C1456       C  0.00101433  0.63354343  0.02765963     0.13210
C1457       C  0.99071867  0.60477513  0.04812171    -0.24480
H1458       H  0.47295346  0.60747485  0.98557259     0.14500
H1459       H  0.04965629  0.71279663  0.03009771     0.14530
C1460       C  0.03054654  0.71590683  0.46801878    -0.24430
H1461       H  0.47312524  0.58310347  0.03472553     0.04740
H1462       H  0.48037083  0.60665102  0.07184603     0.07970
H1463       H  0.01085397  0.60253430  0.05386029     0.07970
H1464       H  0.01041271  0.71780585  0.46117264     0.07950
H1465       H  0.04223783  0.71481317  0.44503262     0.07950
H1466       H  0.04728432  0.73747623  0.48217851     0.04730
C1467       C  0.02943446  0.68967244  0.28818031    -0.21080
C1468       C  0.49728242  0.67098522  0.28743307    -0.07640
C1469       C  0.48145698  0.66431871  0.25634655     0.13230
C1470       C  0.49833412  0.67160498  0.22663126    -0.21130
C1471       C  0.03038488  0.68494686  0.22734364    -0.07650
C1472       C  0.04640033  0.69702445  0.25845644     0.13210
C1473       C  0.08124177  0.71622068  0.26127582    -0.24480
H1474       H  0.04138307  0.69579446  0.31206909     0.14920
H1475       H  0.48613991  0.66447850  0.20294622     0.14530
C1476       C  0.44669234  0.64863498  0.25416165    -0.24430
H1477       H  0.08893074  0.72703920  0.28655638     0.04740
H1478       H  0.09077742  0.73547884  0.24301764     0.07970
H1479       H  0.09114493  0.70129789  0.25711383     0.07970
H1480       H  0.43913329  0.66263842  0.26824122     0.07950
H1481       H  0.43489098  0.62472027  0.26425671     0.07950
H1482       H  0.43869068  0.64649325  0.22792199     0.04730
C1483       C  0.33289283  0.99697719  0.47166800    -0.21080
C1484       C  0.35999451  0.52673602  0.47111554    -0.07640
C1485       C  0.37589666  0.54014965  0.00203092     0.13230
C1486       C  0.36535683  0.52282509  0.03152626    -0.21130
C1487       C  0.33993020  0.99227846  0.03117627    -0.07650
C1488       C  0.32286960  0.97954693  0.50113315     0.13210
C1489       C  0.29421726  0.94726548  0.49996628    -0.24480
H1490       H  0.32019401  0.98660976  0.44862276     0.14500
H1491       H  0.37853498  0.53222698  0.05451579     0.14530
C1492       C  0.40538341  0.57166712  0.00433771    -0.24430
H1493       H  0.28322524  0.94123538  0.47481577     0.04740
H1494       H  0.27717265  0.94626760  0.01803101     0.07970
H1495       H  0.29990641  0.92939017  0.50627915     0.07970
H1496       H  0.40136611  0.59019759  0.99578591     0.07950
H1497       H  0.42312566  0.57099183  0.48886189     0.07950
H1498       H  0.41463089  0.57792950  0.03025910     0.04730
C1499       C  0.34910773  0.49380052  0.27928147    -0.21080
C1500       C  0.37863448  0.52112715  0.28176454    -0.07640
C1501       C  0.40088935  0.52687141  0.25633290     0.13230
C1502       C  0.39288840  0.50543570  0.23023839    -0.21130
C1503       C  0.36325512  0.97912572  0.22684563    -0.07650
C1504       C  0.34094037  0.47292155  0.25173163     0.13210
C1505       C  0.30884797  0.94433585  0.24966298    -0.24480
H1506       H  0.33217985  0.48914910  0.29844155     0.14500
H1507       H  0.40987483  0.01029447  0.21105081     0.14530
C1508       C  0.43326528  0.55571722  0.25476037    -0.24430
H1509       H  0.29502589  0.44230723  0.27208471     0.04740
H1510       H  0.31019600  0.92297687  0.24774186     0.07970
H1511       H  0.29646023  0.94560853  0.22755735     0.07970
H1512       H  0.44688258  0.55827063  0.27743809     0.07950
H1513       H  0.43191752  0.57685889  0.25138969     0.07950
H1514       H  0.44678413  0.55482616  0.23338656     0.04730
C1515       C  0.02346061  0.57436291  0.39260426    -0.21080
C1516       C  0.02848506  0.60424416  0.38780351    -0.07640
C1517       C  0.05882930  0.62942412  0.38164657     0.13230
C1518       C  0.08340824  0.62400326  0.38109011    -0.21130
C1519       C  0.07851241  0.59404414  0.38604056    -0.07650
C1520       C  0.04785046  0.56892033  0.39230330     0.13210
C1521       C  0.04017948  0.53620076  0.39926667    -0.24480
H1522       H  0.00015575  0.55511607  0.39745933     0.14500
H1523       H  0.10676068  0.64366873  0.37891151     0.14530
C1524       C  0.06569373  0.66227014  0.37752643    -0.24430
H1525       H  0.01484062  0.51929200  0.40073321     0.04740
H1526       H  0.05039325  0.53555371  0.42346935     0.07970
H1527       H  0.04917567  0.52832316  0.37883003     0.07970
H1528       H  0.05793689  0.66955369  0.39995981     0.07950
H1529       H  0.05353211  0.66333871  0.35507662     0.07950
H1530       H  0.09082452  0.67928582  0.37429065     0.04730
C1531       C  0.30017760  0.60756944  0.33960180    -0.21080
C1532       C  0.28198502  0.59796439  0.36850869    -0.07640
C1533       C  0.29324605  0.59025148  0.39701075     0.13230
C1534       C  0.32066706  0.58987066  0.39462564    -0.21130
C1535       C  0.33743128  0.59691003  0.36479720    -0.07650
C1536       C  0.32765043  0.60729344  0.33728376     0.13210
C1537       C  0.34557512  0.61801952  0.30512011    -0.24480
H1538       H  0.29237508  0.61449870  0.31810069     0.14500
H1539       H  0.32843517  0.58284121  0.41606980     0.14530
C1540       C  0.27647070  0.58144029  0.42996412    -0.24430
H1541       H  0.33539241  0.62715104  0.28751742     0.04740
H1542       H  0.34535364  0.59815596  0.29222595     0.07970
H1543       H  0.36972985  0.63721051  0.31042215     0.07970
H1544       H  0.25346006  0.55966041  0.42693483     0.07950
H1545       H  0.27386383  0.60084533  0.43948479     0.07950
H1546       H  0.28926272  0.57696040  0.44932095     0.04730
C1547       C  0.02381693  0.85270097  0.46711503    -0.21080
C1548       C  0.49177625  0.83916140  0.46742822    -0.07640
C1549       C  0.47564086  0.82914080  0.99822929     0.13230
C1550       C  0.49238741  0.83615975  0.02820687    -0.21130
C1551       C  0.02464014  0.85319618  0.02807030    -0.07650
C1552       C  0.04055794  0.86006826  0.49716827     0.13210
C1553       C  0.07530035  0.87580099  0.49572652    -0.24480
H1554       H  0.03596042  0.85961399  0.44353710     0.14500
H1555       H  0.48036515  0.83057189  0.05187892     0.14530
C1556       C  0.44076138  0.81151893  0.99990936    -0.24430
H1557       H  0.08348208  0.87732780  0.46967259     0.04740
H1558       H  0.08272433  0.86213817  0.51019681     0.07970
H1559       H  0.08673881  0.90002178  0.00600594     0.07970
H1560       H  0.43079776  0.79042726  0.48340823     0.07950
H1561       H  0.43190797  0.82659992  0.99237517     0.07950
H1562       H  0.43235234  0.80359868  0.02563021     0.04730
C1563       C  0.46655815  0.83724356  0.24408260    -0.21080
C1564       C  0.48155345  0.86002391  0.26945015    -0.07640
C1565       C  0.01292551  0.88369811  0.26545632     0.13230
C1566       C  0.02841025  0.88369721  0.23666286    -0.21130
C1567       C  0.01404958  0.86067517  0.21152704    -0.07650
C1568       C  0.48222389  0.83750585  0.21484887     0.13210
C1569       C  0.46448079  0.81318376  0.18800145    -0.24480
H1570       H  0.44243712  0.81916959  0.24720460     0.14500
H1571       H  0.05229209  0.90212032  0.23387526     0.14530
C1572       C  0.03105773  0.90823401  0.29199512    -0.24430
H1573       H  0.43996945  0.79702784  0.19508900     0.04740
H1574       H  0.47509214  0.79893092  0.18352369     0.07970
H1575       H  0.46450365  0.82478838  0.16460169     0.07970
H1576       H  0.03204699  0.89675864  0.31490664     0.07950
H1577       H  0.02031243  0.92219721  0.29707882     0.07950
H1578       H  0.05531834  0.92484111  0.28441407     0.04730
C1579       C  0.43487766  0.96537115  0.34606428    -0.21080
C1580       C  0.42567030  0.94259376  0.37067978    -0.07640
C1581       C  0.41757198  0.94850837  0.40270559     0.13230
C1582       C  0.41743821  0.97608552  0.40858346    -0.21130
C1583       C  0.42481126  0.99770345  0.38325394    -0.07650
C1584       C  0.43457515  0.99276443  0.35194566     0.13210
C1585       C  0.44504463  0.01643639  0.32472517    -0.24480
H1586       H  0.44176726  0.96149107  0.32170851     0.14500
H1587       H  0.41048073  0.98028871  0.43275378     0.14530
C1588       C  0.40930965  0.92629092  0.43099654    -0.24430
H1589       H  0.45368819  0.00973298  0.30259212     0.04740
H1590       H  0.46395751  0.53961493  0.33411787     0.07970
H1591       H  0.42523503  0.01809839  0.31646018     0.07970
H1592       H  0.42834179  0.92192126  0.43509868     0.07950
H1593       H  0.38738568  0.90413820  0.42501033     0.07950
H1594       H  0.40576620  0.93576399  0.45471336     0.04730
C1595       C  0.40843146  0.68917258  0.40118467    -0.21080
C1596       C  0.42760213  0.68841826  0.37625094    -0.07640
C1597       C  0.44572278  0.71503795  0.35656508     0.13230
C1598       C  0.44347590  0.74120244  0.36147589    -0.21130
C1599       C  0.42412954  0.74216257  0.38586773    -0.07650
C1600       C  0.40647139  0.71594685  0.40628981     0.13210
C1601       C  0.38511869  0.71576069  0.43256580    -0.24480
H1602       H  0.39484556  0.66873678  0.41640471     0.14500
H1603       H  0.45779525  0.76161496  0.34646193     0.14530
C1604       C  0.46897362  0.71714651  0.33151365    -0.24430
H1605       H  0.37210078  0.69282192  0.44512681     0.04740
H1606       H  0.36812232  0.72043098  0.42094145     0.07970
H1607       H  0.39866746  0.73395784  0.45194500     0.07970
H1608       H  0.45736669  0.69896254  0.31176706     0.07950
H1609       H  0.98680438  0.71469475  0.34449192     0.07950
H1610       H  0.98122205  0.74006948  0.31884777     0.04730
C1611       C  0.06621578  0.98547032  0.35873486    -0.21080
C1612       C  0.09242135  0.98509572  0.36913340    -0.07640
C1613       C  0.08790848  0.95598025  0.37958093     0.13230
C1614       C  0.05753177  0.92981260  0.38291352    -0.21130
C1615       C  0.03124869  0.93114132  0.37493274    -0.07650
C1616       C  0.03602735  0.95948187  0.36192944     0.13210
C1617       C  0.00968807  0.96248629  0.34980602    -0.24480
H1618       H  0.06933944  0.50658733  0.34805516     0.14500
H1619       H  0.05438344  0.90781269  0.39105545     0.14530
C1620       C  0.11410308  0.95071747  0.38586596    -0.24430
H1621       H  0.01769446  0.98595204  0.33955290     0.04740
H1622       H  0.49383246  0.95880790  0.37074241     0.07970
H1623       H  0.49738026  0.94525833  0.32934412     0.07970
H1624       H  0.11620929  0.94811633  0.41303474     0.07950
H1625       H  0.13650177  0.96940321  0.37597981     0.07950
H1626       H  0.10923633  0.92890993  0.37270140     0.04730
C1627       C  0.30403884  0.74375024  0.39353163    -0.21080
C1628       C  0.33016699  0.74675412  0.37800798    -0.07640
C1629       C  0.32759452  0.72072369  0.36062286     0.13230
C1630       C  0.29911862  0.69211063  0.36037203    -0.21130
C1631       C  0.27303998  0.68899909  0.37652376    -0.07650
C1632       C  0.27553024  0.71538370  0.39302468     0.13210
C1633       C  0.24800381  0.71450202  0.40853035    -0.24480
H1634       H  0.30574795  0.76414555  0.40522504     0.14500
H1635       H  0.29714479  0.67215484  0.34699784     0.14530
C1636       C  0.35402626  0.72220865  0.34184971    -0.24430
H1637       H  0.25405459  0.73770399  0.41897784     0.04740
H1638       H  0.23891093  0.69766750  0.42930876     0.07970
H1639       H  0.22976065  0.70760676  0.38926342     0.07970
H1640       H  0.35983494  0.70572847  0.35288266     0.07950
H1641       H  0.37493362  0.74593109  0.34218549     0.07950
H1642       H  0.34718514  0.71533450  0.31532709     0.04730
C1643       C  0.33062603  0.83930578  0.51115592    -0.21080
C1644       C  0.35310882  0.86358279  0.03167715    -0.07640
C1645       C  0.38377485  0.88171253  0.02013388     0.13230
C1646       C  0.39135316  0.87471576  0.98912941    -0.21130
C1647       C  0.36903825  0.85122133  0.46778289    -0.07650
C1648       C  0.33824637  0.83290099  0.47924186     0.13210
C1649       C  0.31381603  0.80599153  0.45877070    -0.24480
H1650       H  0.30686188  0.82616063  0.51955805     0.14500
H1651       H  0.41524360  0.88835965  0.98128779     0.14530
C1652       C  0.40879835  0.90913303  0.04000365    -0.24430
H1653       H  0.29102504  0.79418335  0.47141580     0.04740
H1654       H  0.32080425  0.78859574  0.45513139     0.07970
H1655       H  0.31106437  0.81435061  0.43428289     0.07970
H1656       H  0.41188868  0.90094320  0.06421065     0.07950
H1657       H  0.40276526  0.92721190  0.04419076     0.07950
H1658       H  0.43145269  0.92056693  0.02708653     0.04730
C1659       C  0.36873922  0.83665989  0.25368544    -0.21080
C1660       C  0.36363448  0.85063740  0.28159045    -0.07640
C1661       C  0.35051213  0.86916780  0.27667305     0.13230
C1662       C  0.34394659  0.87412402  0.24402967    -0.21130
C1663       C  0.35031899  0.86131763  0.21586110    -0.07650
C1664       C  0.36220987  0.84163911  0.22099419     0.13210
C1665       C  0.37036476  0.82772713  0.19221394    -0.24480
H1666       H  0.37911028  0.82274000  0.25743366     0.14500
H1667       H  0.33496705  0.88929568  0.24042612     0.14530
C1668       C  0.34540834  0.88562466  0.30549948    -0.24430
H1669       H  0.38008770  0.81363136  0.20074404     0.04740
H1670       H  0.38809345  0.84693184  0.17680691     0.07970
H1671       H  0.34943220  0.81215256  0.17693752     0.07970
H1672       H  0.36764851  0.90131258  0.31872992     0.07950
H1673       H  0.32852532  0.86813500  0.32312845     0.07950
H1674       H  0.33612975  0.90013981  0.29703579     0.04730
O1675       O  0.44146947  0.91365374  0.83757017    -0.80910
O1676       O  0.45715997  0.84816531  0.93942647    -0.80930
O1677       O  0.36605710  0.83391215  0.90920242    -0.80940
O1678       O  0.49766161  0.87623414  0.86403671    -0.80880
O1679       O  0.40836956  0.85205311  0.93666717    -0.81000
O1680       O  0.47570674  0.90211116  0.88149318    -0.80920
O1681       O  0.47834480  0.82823219  0.90882841    -0.80910
O1682       O  0.40951748  0.88825762  0.87869427    -0.80950
C1683       C  0.42531826  0.91355432  0.86174204     1.08780
C1684       C  0.47579030  0.83918300  0.93672254     1.08670
C1685       C  0.38102164  0.84532919  0.93626794     1.08800
C1686       C  0.49994322  0.90153411  0.87474134     1.08680
O1687       O  0.46678472  0.88046957  0.81522985    -0.80910
O1688       O  0.37145836  0.78681745  0.91027926    -0.80990
O1689       O  0.36091386  0.84397805  0.84124574    -0.80920
O1690       O  0.43010702  0.78692773  0.86182371    -0.80900
O1691       O  0.42248224  0.78319463  0.91584984    -0.80950
O1692       O  0.40394767  0.85404343  0.81613545    -0.80920
O1693       O  0.45136332  0.83127701  0.81558232    -0.80880
O1694       O  0.36953140  0.79548694  0.85662396    -0.80950
Co1695     Co  0.43870478  0.87673351  0.85250018     1.51530
Co1696     Co  0.41558899  0.81913050  0.92362891     1.51690
Co1697     Co  0.39117510  0.84091925  0.86641503     1.51570
Co1698     Co  0.46222134  0.83090838  0.86290900     1.51470
O1699       O  0.42883440  0.83886893  0.87858719    -1.42840
C1700       C  0.46511522  0.85703788  0.80098433     1.08710
C1701       C  0.35925727  0.77740358  0.88133580     1.08800
C1702       C  0.37637118  0.84939943  0.81455193     1.08740
C1703       C  0.42416822  0.77151856  0.88813778     1.08710
O1704       O  0.46273086  0.62404971  0.81298864    -0.80910
O1705       O  0.42997716  0.54017030  0.91611702    -0.80930
O1706       O  0.99722414  0.62524432  0.87383215    -0.80940
O1707       O  0.36996134  0.53879966  0.83617035    -0.80880
O1708       O  0.48283748  0.59368477  0.91535757    -0.81000
O1709       O  0.41199732  0.56888196  0.80834773    -0.80920
O1710       O  0.40727766  0.53115887  0.86880055    -0.80910
O1711       O  0.48420483  0.66440437  0.84626698    -0.80950
C1712       C  0.48113211  0.65274789  0.81713696     1.08780
C1713       C  0.42086064  0.52441187  0.88956505     1.08670
C1714       C  0.00173154  0.60816148  0.89236417     1.08800
C1715       C  0.38656511  0.54375148  0.81013335     1.08680
O1716       O  0.37608752  0.59255257  0.83530730    -0.80910
O1717       O  0.45429678  0.62778247  0.93946153    -0.80990
O1718       O  0.43687519  0.64995956  0.89594663    -0.80920
O1719       O  0.36131403  0.52724919  0.91013541    -0.80900
O1720       O  0.39613284  0.56987506  0.93707312    -0.80950
O1721       O  0.42798595  0.64955655  0.84252205    -0.80920
O1722       O  0.37323561  0.58466044  0.88841071    -0.80880
O1723       O  0.49582561  0.66715946  0.91721678    -0.80950
Co1724     Co  0.42060015  0.60782741  0.82754723     1.51530
Co1725     Co  0.43987315  0.58410605  0.92204585     1.51690
Co1726     Co  0.46622550  0.63600696  0.88624411     1.51570
Co1727     Co  0.39190227  0.55864477  0.88072083     1.51470
O1728       O  0.43260435  0.59450662  0.87026528    -1.42840
C1729       C  0.36391045  0.59187445  0.86296440     1.08710
C1730       C  0.48228806  0.65094424  0.94286983     1.08800
C1731       C  0.42975885  0.66054453  0.87166496     1.08740
C1732       C  0.37276784  0.54163519  0.93801943     1.08710
O1733       O  0.02410894  0.89279811  0.61852703    -0.80910
O1734       O  0.15198658  0.98135364  0.59280125    -0.80930
O1735       O  0.09097858  0.97547001  0.67432590    -0.80940
O1736       O  0.06031084  0.89769585  0.55838839    -0.80880
O1737       O  0.11463782  0.98811506  0.62803444    -0.81000
O1738       O  0.03777014  0.85496338  0.58645516    -0.80920
O1739       O  0.11090686  0.95318081  0.56151289    -0.80910
O1740       O  0.03753107  0.92316927  0.66238964    -0.80950
C1741       C  0.01958179  0.90987854  0.63787194     1.08780
C1742       C  0.13625058  0.97827666  0.56654778     1.08670
C1743       C  0.10195269  0.99444067  0.65091106     1.08800
C1744       C  0.04132554  0.86890686  0.55918350     1.08680
O1745       O  0.08242267  0.86511618  0.63756857    -0.80910
O1746       O  0.15866699  0.98642739  0.66688357    -0.80990
O1747       O  0.06223485  0.88498546  0.68174814    -0.80920
O1748       O  0.14585252  0.92799201  0.58418152    -0.80900
O1749       O  0.14734775  0.93155776  0.63801748    -0.80950
O1750       O  0.02223642  0.84670400  0.65573727    -0.80920
O1751       O  0.09418498  0.86980633  0.58476823    -0.80880
O1752       O  0.12229453  0.94304714  0.69103358    -0.80950
Co1753     Co  0.05405638  0.88041893  0.62951637     1.51530
Co1754     Co  0.12874077  0.95823732  0.63482156     1.51690
Co1755     Co  0.07936835  0.93065288  0.67242622     1.51570
Co1756     Co  0.10179342  0.91288654  0.57525838     1.51470
O1757       O  0.08867696  0.92357633  0.61963521    -1.42840
C1758       C  0.09091753  0.85628704  0.61235550     1.08710
C1759       C  0.14706182  0.97071545  0.69352205     1.08800
C1760       C  0.03337455  0.86332181  0.68224721     1.08740
C1761       C  0.15790898  0.92727445  0.61122419     1.08710
O1762       O  0.18846245  0.65167202  0.84469144    -0.80910
O1763       O  0.14547476  0.51891707  0.88843326    -0.80930
O1764       O  0.17683306  0.55994370  0.81142140    -0.80940
O1765       O  0.10434098  0.56991614  0.90754893    -0.80880
O1766       O  0.19385378  0.53801820  0.84506517    -0.81000
O1767       O  0.13171878  0.60853003  0.87300193    -0.80920
O1768       O  0.12312723  0.54083608  0.86374053    -0.80910
O1769       O  0.17371342  0.61129719  0.81243083    -0.80950
C1770       C  0.17921528  0.63858727  0.81658043     1.08780
C1771       C  0.12236809  0.51623518  0.87261455     1.08670
C1772       C  0.18335302  0.53945573  0.81671142     1.08800
C1773       C  0.10587717  0.59048618  0.88870682     1.08680
O1774       O  0.17578072  0.65775210  0.90732641    -0.80910
O1775       O  0.23451172  0.58709154  0.89283271    -0.80990
O1776       O  0.23564730  0.64652555  0.84317364    -0.80920
O1777       O  0.13978299  0.55132289  0.93257173    -0.80900
O1778       O  0.18817496  0.56682011  0.93733763    -0.80950
O1779       O  0.22388649  0.64837492  0.89615014    -0.80920
O1780       O  0.15965337  0.61286992  0.93219028    -0.80880
O1781       O  0.23913657  0.59463577  0.83895725    -0.80950
Co1782     Co  0.17929593  0.62626237  0.88558641     1.51530
Co1783     Co  0.19034717  0.55524038  0.89040031     1.51690
Co1784     Co  0.20448284  0.60218374  0.82865252     1.51570
Co1785     Co  0.14313269  0.57754197  0.89449702     1.51470
O1786       O  0.18285280  0.58904997  0.87309324    -1.42840
C1787       C  0.16447852  0.64104719  0.93273459     1.08710
C1788       C  0.25064737  0.59387429  0.86691777     1.08800
C1789       C  0.24292053  0.65934956  0.87217088     1.08740
C1790       C  0.16164575  0.55373764  0.94984770     1.08710
O1791       O  0.03319128  0.62011810  0.67394049    -0.80910
O1792       O  0.12089230  0.70224370  0.55178493    -0.80930
O1793       O  0.02842913  0.67379799  0.59853118    -0.80940
O1794       O  0.09377683  0.61896965  0.62469794    -0.80880
O1795       O  0.06242908  0.66496792  0.57328953    -0.81000
O1796       O  0.08449914  0.61510858  0.67816947    -0.80920
O1797       O  0.12554531  0.66650708  0.57798008    -0.80910
O1798       O  0.03624325  0.62726162  0.62044226    -0.80950
C1799       C  0.02206081  0.61025494  0.64478579     1.08780
C1800       C  0.12601802  0.68000604  0.55095231     1.08670
C1801       C  0.03849047  0.66779736  0.57205626     1.08800
C1802       C  0.08761735  0.60341340  0.65115070     1.08680
O1803       O  0.12001517  0.67885392  0.70560985    -0.80910
O1804       O  0.09571722  0.72954674  0.59068945    -0.80990
O1805       O  0.03204462  0.66970228  0.66954789    -0.80920
O1806       O  0.16440900  0.70646860  0.63209453    -0.80900
O1807       O  0.14315615  0.73101881  0.61271019    -0.80950
O1808       O  0.07173116  0.68477783  0.70135301    -0.80920
O1809       O  0.13962612  0.65849126  0.67361167    -0.80880
O1810       O  0.07520495  0.71876070  0.63884278    -0.80950
Co1811     Co  0.07838037  0.65152253  0.68690570     1.51530
Co1812     Co  0.10415599  0.69526648  0.59601475     1.51690
Co1813     Co  0.05737787  0.67346454  0.62835894     1.51570
Co1814     Co  0.12717369  0.66340072  0.62816691     1.51470
O1815       O  0.09506458  0.67601420  0.64320250    -1.42840
C1816       C  0.13939033  0.67084805  0.70111553     1.08710
C1817       C  0.08668416  0.73796442  0.61563669     1.08800
C1818       C  0.04554920  0.68079194  0.69754711     1.08740
C1819       C  0.16591808  0.73169404  0.62549322     1.08710
O1820       O  0.41141251  0.93690548  0.65878654    -0.80910
O1821       O  0.34000536  0.94981290  0.55362380    -0.80930
O1822       O  0.33317752  0.86150050  0.58731681    -0.80940
O1823       O  0.37697680  0.99397986  0.63298671    -0.80880
O1824       O  0.34552858  0.90120697  0.55600953    -0.81000
O1825       O  0.39964754  0.96970998  0.61327382    -0.80920
O1826       O  0.32799813  0.97599926  0.58850896    -0.80910
O1827       O  0.38637185  0.90418665  0.61748195    -0.80950
C1828       C  0.41065278  0.91862908  0.63622278     1.08780
C1829       C  0.33583595  0.97191589  0.55952442     1.08670
C1830       C  0.34328775  0.87547578  0.55987209     1.08800
C1831       C  0.40124157  0.99501015  0.62178044     1.08680
O1832       O  0.37950416  0.96238666  0.67987417    -0.80910
O1833       O  0.28408358  0.86409920  0.58715026    -0.80990
O1834       O  0.34367642  0.85681902  0.65551588    -0.80920
O1835       O  0.28605915  0.93002983  0.63605773    -0.80900
O1836       O  0.27924083  0.91615498  0.58303570    -0.80950
O1837       O  0.35270201  0.90038667  0.67982456    -0.80920
O1838       O  0.33141296  0.94833151  0.68097063    -0.80880
O1839       O  0.29596265  0.86531111  0.64034758    -0.80950
Co1840     Co  0.37473677  0.93368758  0.64273359     1.51530
Co1841     Co  0.31392181  0.90870060  0.57257237     1.51690
Co1842     Co  0.34018932  0.88700409  0.62992665     1.51570
Co1843     Co  0.33089825  0.95958389  0.63386406     1.51470
O1844       O  0.33692265  0.92435866  0.61686145    -1.42840
C1845       C  0.35720915  0.96108923  0.69531285     1.08710
C1846       C  0.27737170  0.85235363  0.61621610     1.08800
C1847       C  0.34868100  0.87286096  0.68217106     1.08740
C1848       C  0.26911773  0.92055309  0.61042612     1.08710
C1849       C  0.43524398  0.54855195  0.64717836    -0.21080
C1850       C  0.43235331  0.52523012  0.62466861    -0.07640
C1851       C  0.45968735  0.53049117  0.60850769     0.13230
C1852       C  0.48850140  0.55816897  0.61568607    -0.21130
C1853       C  0.49126121  0.58069983  0.63912107    -0.07650
C1854       C  0.46401413  0.57589657  0.65452333     0.13210
C1855       C  0.46487549  0.60029217  0.67765113    -0.24480
H1856       H  0.41483390  0.54521482  0.65977079     0.14500
H1857       H  0.00917338  0.56213788  0.60312228     0.14530
C1858       C  0.45888143  0.50744776  0.58328510    -0.24430
H1859       H  0.44154876  0.59317764  0.68717575     0.04740
H1860       H  0.47376175  0.62238384  0.66388851     0.07970
H1861       H  0.48002696  0.60437264  0.69948516     0.07970
H1862       H  0.44202983  0.00305184  0.56311722     0.07950
H1863       H  0.45235805  0.98514449  0.59552788     0.07950
H1864       H  0.48181992  0.51633882  0.57157362     0.04730
C1865       C  0.22256473  0.76451360  0.62006881    -0.21080
C1866       C  0.19498208  0.76238476  0.62972695    -0.07640
C1867       C  0.19524205  0.79029007  0.63742622     0.13230
C1868       C  0.22241632  0.81943714  0.63260184    -0.21130
C1869       C  0.24939612  0.82137497  0.62112416    -0.07650
C1870       C  0.24971671  0.79364798  0.61552708     0.13210
C1871       C  0.27839300  0.79460698  0.60378420    -0.24480
H1872       H  0.22245127  0.74329193  0.61410578     0.14500
H1873       H  0.22252464  0.84078126  0.63778605     0.14530
C1874       C  0.16762826  0.79036633  0.65131579    -0.24430
H1875       H  0.27461715  0.77078085  0.60093747     0.04740
H1876       H  0.29738842  0.80782458  0.62216399     0.07970
H1877       H  0.28525743  0.80593744  0.57910705     0.07970
H1878       H  0.14816137  0.76671171  0.65755260     0.07950
H1879       H  0.15956500  0.80105284  0.63308448     0.07950
H1880       H  0.17440319  0.80451081  0.67483136     0.04730
C1881       C  0.15297041  0.68039559  0.76121394    -0.21080
C1882       C  0.15771178  0.67079070  0.72970371    -0.07640
C1883       C  0.17603556  0.65705203  0.72747040     0.13230
C1884       C  0.18480171  0.64910169  0.75684551    -0.21130
C1885       C  0.17613332  0.65472930  0.78809317    -0.07650
C1886       C  0.16205579  0.67252927  0.79054503     0.13210
C1887       C  0.15439379  0.68104856  0.82377618    -0.24480
H1888       H  0.14015636  0.69213312  0.76315111     0.14500
H1889       H  0.19704156  0.63672567  0.75538721     0.14530
C1890       C  0.18545308  0.64918766  0.69472896    -0.24430
H1891       H  0.14195043  0.69369059  0.82111075     0.04740
H1892       H  0.17594190  0.69626557  0.83830426     0.07970
H1893       H  0.13942334  0.65934384  0.83756021     0.07970
H1894       H  0.19688586  0.67019549  0.67879368     0.07950
H1895       H  0.16500046  0.62965766  0.68168374     0.07950
H1896       H  0.20212976  0.64146576  0.69845373     0.04730
C1897       C  0.14427259  0.63298851  0.48985837    -0.21080
C1898       C  0.15579015  0.65277598  0.96249991    -0.07640
C1899       C  0.15566480  0.68111572  0.96342825     0.13230
C1900       C  0.14499735  0.68901439  0.49218414    -0.21130
C1901       C  0.13406090  0.66932860  0.51981303    -0.07650
C1902       C  0.13315638  0.64044503  0.51810291     0.13210
C1903       C  0.12045532  0.61666701  0.54553750    -0.24480
H1904       H  0.14369693  0.61107357  0.48920986     0.14500
H1905       H  0.14563584  0.71095111  0.49325316     0.14530
C1906       C  0.16625322  0.70316973  0.93444928    -0.24430
H1907       H  0.11874986  0.59440202  0.53798280     0.04740
H1908       H  0.09679108  0.61082285  0.55227600     0.07970
H1909       H  0.13619555  0.62598703  0.56750725     0.07970
H1910       H  0.15177330  0.69099275  0.91206985     0.07950
H1911       H  0.19090970  0.71199281  0.92907564     0.07950
H1912       H  0.16424285  0.72383147  0.93979702     0.04730
C1913       C  0.12021704  0.99670665  0.01916818    -0.21080
C1914       C  0.14463044  0.00231964  0.54061017    -0.07640
C1915       C  0.17462479  0.52778667  0.53408511     0.13230
C1916       C  0.17952141  0.54540943  0.50499461    -0.21130
C1917       C  0.15514554  0.53773806  0.98231266    -0.07650
C1918       C  0.12497060  0.01281198  0.98982554     0.13210
C1919       C  0.09746356  0.00101535  0.96649514    -0.24480
H1920       H  0.09672719  0.97822289  0.02453865     0.14500
H1921       H  0.20262336  0.56459041  0.49942033     0.14530
C1922       C  0.20134400  0.53595364  0.55697896    -0.24430
H1923       H  0.07628899  0.98014659  0.97620542     0.04740
H1924       H  0.10253511  0.99381421  0.94217360     0.07970
H1925       H  0.09178500  0.01935010  0.96300176     0.07970
H1926       H  0.20480711  0.51590168  0.55832174     0.07950
H1927       H  0.19656864  0.54162402  0.58234562     0.07950
H1928       H  0.22316671  0.55658272  0.54807546     0.04730
C1929       C  0.15759550  0.48759517  0.78795975    -0.21080
C1930       C  0.18067115  0.51929620  0.78802554    -0.07640
C1931       C  0.19677611  0.53285584  0.75816792     0.13230
C1932       C  0.18703610  0.51536955  0.72819046    -0.21130
C1933       C  0.16129273  0.98458502  0.72704337    -0.07650
C1934       C  0.14773157  0.96993277  0.75793625     0.13210
C1935       C  0.12176377  0.93633590  0.75980746    -0.24480
H1936       H  0.14558269  0.47728381  0.81103597     0.14500
H1937       H  0.19851788  0.52663890  0.70522900     0.14530
C1938       C  0.22382645  0.56619944  0.75771188    -0.24430
H1939       H  0.11525696  0.92867607  0.78599296     0.04740
H1940       H  0.12869019  0.92087357  0.74771687     0.07970
H1941       H  0.10112836  0.93367865  0.74734677     0.07970
H1942       H  0.24184817  0.56903210  0.77558117     0.07950
H1943       H  0.21631908  0.58269255  0.76471401     0.07950
H1944       H  0.23446143  0.57272689  0.73258555     0.04730
C1945       C  0.08593407  0.52915281  0.67840782    -0.21080
C1946       C  0.09932530  0.52304537  0.65070004    -0.07640
C1947       C  0.10833405  0.54354689  0.62327833     0.13230
C1948       C  0.10316354  0.56850288  0.62410118    -0.21130
C1949       C  0.08929771  0.57431752  0.65140908    -0.07650
C1950       C  0.08033720  0.55393168  0.67896772     0.13210
C1951       C  0.06425890  0.55743917  0.70890825    -0.24480
H1952       H  0.07912472  0.51396686  0.69974259     0.14500
H1953       H  0.11054836  0.58395477  0.60315041     0.14530
C1954       C  0.12334040  0.53956271  0.59274290    -0.24430
H1955       H  0.05686875  0.53805590  0.72672617     0.04740
H1956       H  0.04323022  0.55718590  0.70072393     0.07970
H1957       H  0.08012771  0.57959393  0.72262519     0.07970
H1958       H  0.10709884  0.51663940  0.58063647     0.07950
H1959       H  0.14519541  0.54102379  0.59985305     0.07950
H1960       H  0.12919700  0.55792779  0.57401526     0.04730
C1961       C  0.10677927  0.79097009  0.59235872    -0.21080
C1962       C  0.08931051  0.76907362  0.61705103    -0.07640
C1963       C  0.07427332  0.77720906  0.64148049     0.13230
C1964       C  0.07645126  0.80627783  0.63980197    -0.21130
C1965       C  0.09292054  0.82765911  0.61432554    -0.07650
C1966       C  0.10878791  0.81996595  0.59060362     0.13210
C1967       C  0.12829947  0.84214902  0.56357157    -0.24480
H1968       H  0.11880972  0.78525860  0.57391855     0.14500
H1969       H  0.06418156  0.81184866  0.65807705     0.14530
C1970       C  0.05511708  0.75534123  0.66899513    -0.24430
H1971       H  0.14075045  0.83318940  0.54889709     0.04740
H1972       H  0.14585144  0.86487855  0.57503225     0.07970
H1973       H  0.11359288  0.84552516  0.54584450     0.07970
H1974       H  0.06988778  0.75056338  0.68511280     0.07950
H1975       H  0.03587890  0.73310964  0.65811033     0.07950
H1976       H  0.04467126  0.76547151  0.68527232     0.04730
C1977       C  0.22694179  0.92208005  0.58140735    -0.21080
C1978       C  0.23849323  0.91812802  0.61140654    -0.07640
C1979       C  0.22209155  0.91510311  0.64135103     0.13230
C1980       C  0.19561242  0.91747845  0.64038800    -0.21130
C1981       C  0.18511113  0.92321841  0.61050266    -0.07650
C1982       C  0.20110384  0.92523401  0.58039517     0.13210
C1983       C  0.19223406  0.93174397  0.54682750    -0.24480
H1984       H  0.23908826  0.92412866  0.55846732     0.14500
H1985       H  0.18333925  0.91536361  0.66332819     0.14530
C1986       C  0.23199498  0.90918078  0.67448197    -0.24430
H1987       H  0.20813759  0.93348361  0.52669381     0.04740
H1988       H  0.19324687  0.95440233  0.54788891     0.07970
H1989       H  0.16869920  0.91249351  0.53943050     0.07970
H1990       H  0.25440631  0.92988968  0.68250150     0.07950
H1991       H  0.23411431  0.88828437  0.67243224     0.07950
H1992       H  0.21500339  0.90480622  0.69443144     0.04730
C1993       C  0.46676712  0.94240303  0.63976974    -0.21080
C1994       C  0.43813482  0.91591853  0.63109710    -0.07640
C1995       C  0.43712411  0.88805791  0.62080882     0.13230
C1996       C  0.46451617  0.88743748  0.62160457    -0.21130
C1997       C  0.49253845  0.91330700  0.63303879    -0.07650
C1998       C  0.49375970  0.94148425  0.64093557     0.13210
C1999       C  0.02347593  0.97102158  0.65002772    -0.24480
H2000       H  0.46797505  0.96403895  0.64658127     0.14500
H2001       H  0.46359310  0.86592967  0.61485415     0.14530
C2002       C  0.40815733  0.85801521  0.61006526    -0.24430
H2003       H  0.02051986  0.99138656  0.65278421     0.04740
H2004       H  0.04056359  0.97634430  0.62995473     0.07970
H2005       H  0.03217475  0.96820956  0.67424217     0.07970
H2006       H  0.40540023  0.83842846  0.62531789     0.07950
H2007       H  0.38670413  0.85829820  0.61260999     0.07950
H2008       H  0.41035441  0.85271242  0.58353798     0.04730
C2009       C  0.48881657  0.63060892  0.49564197    -0.21080
C2010       C  0.49752906  0.65687708  0.97586832    -0.07640
C2011       C  0.01989566  0.68696593  0.98822496     0.13230
C2012       C  0.03228056  0.68988003  0.52037060    -0.21130
C2013       C  0.02292067  0.66348567  0.54002482    -0.07650
C2014       C  0.00101455  0.63354325  0.52765939     0.13210
C2015       C  0.99071923  0.60477487  0.54812121    -0.24480
H2016       H  0.47295412  0.60747468  0.48557198     0.14500
H2017       H  0.04965548  0.71279660  0.53009822     0.14530
C2018       C  0.03054741  0.71590677  0.96801822    -0.24430
H2019       H  0.47312635  0.58310309  0.53472457     0.04740
H2020       H  0.48037130  0.60665012  0.57184535     0.07970
H2021       H  0.01085473  0.60253437  0.55385976     0.07970
H2022       H  0.01041382  0.71780617  0.96117202     0.07950
H2023       H  0.04223850  0.71481268  0.94503209     0.07950
H2024       H  0.04728548  0.73747617  0.98217777     0.04730
C2025       C  0.02943444  0.68967237  0.78818034    -0.21080
C2026       C  0.49728240  0.67098519  0.78743310    -0.07640
C2027       C  0.48145697  0.66431872  0.75634657     0.13230
C2028       C  0.49833411  0.67160499  0.72663129    -0.21130
C2029       C  0.03038487  0.68494683  0.72734367    -0.07650
C2030       C  0.04640033  0.69702438  0.75845648     0.13210
C2031       C  0.08124177  0.71622056  0.76127587    -0.24480
H2032       H  0.04138305  0.69579436  0.81206913     0.14920
H2033       H  0.48613991  0.66447853  0.70294624     0.14530
C2034       C  0.44669233  0.64863505  0.75416167    -0.24430
H2035       H  0.08893074  0.72703905  0.78655644     0.04740
H2036       H  0.09077745  0.73547873  0.74301771     0.07970
H2037       H  0.09114489  0.70129773  0.75711386     0.07970
H2038       H  0.43913333  0.66263851  0.76824129     0.07950
H2039       H  0.43489094  0.62472032  0.76425670     0.07950
H2040       H  0.43869068  0.64649337  0.72792202     0.04730
C2041       C  0.33289307  0.99697729  0.97166802    -0.21080
C2042       C  0.35999437  0.52673597  0.97111550    -0.07640
C2043       C  0.37589682  0.54014973  0.50203094     0.13230
C2044       C  0.36535701  0.52282516  0.53152629    -0.21130
C2045       C  0.33992998  0.99227833  0.53117624    -0.07650
C2046       C  0.32286983  0.97954705  0.00113317     0.13210
C2047       C  0.29421749  0.94726559  0.99996629    -0.24480
H2048       H  0.32019425  0.98660986  0.94862278     0.14500
H2049       H  0.37853516  0.53222706  0.55451581     0.14530
C2050       C  0.40538352  0.57166726  0.50433774    -0.24430
H2051       H  0.28322548  0.94123549  0.97481578     0.04740
H2052       H  0.27717242  0.94626750  0.51803099     0.07970
H2053       H  0.29990664  0.92939028  0.00627917     0.07970
H2054       H  0.40136612  0.59019767  0.49578595     0.07950
H2055       H  0.42312547  0.57099156  0.98886187     0.07950
H2056       H  0.41463099  0.57792965  0.53025912     0.04730
C2057       C  0.34910766  0.49380048  0.77928148    -0.21080
C2058       C  0.37863441  0.52112713  0.78176454    -0.07640
C2059       C  0.40088929  0.52687137  0.75633293     0.13230
C2060       C  0.39288835  0.50543565  0.73023844    -0.21130
C2061       C  0.36325519  0.97912575  0.72684561    -0.07650
C2062       C  0.34094032  0.47292150  0.75173166     0.13210
C2063       C  0.30884806  0.94433592  0.74966298    -0.24480
H2064       H  0.33217978  0.48914907  0.79844155     0.14500
H2065       H  0.40987491  0.01029448  0.71105077     0.14530
C2066       C  0.43326521  0.55571719  0.75476039    -0.24430
H2067       H  0.29502584  0.44230718  0.77208473     0.04740
H2068       H  0.31019606  0.92297692  0.74774184     0.07970
H2069       H  0.29646031  0.94560862  0.72755737     0.07970
H2070       H  0.44688251  0.55827063  0.77743813     0.07950
H2071       H  0.43191744  0.57685886  0.75138968     0.07950
H2072       H  0.44678407  0.55482612  0.73338661     0.04730
C2073       C  0.02346057  0.57436287  0.89260416    -0.21080
C2074       C  0.02848502  0.60424413  0.88780349    -0.07640
C2075       C  0.05882927  0.62942412  0.88164661     0.13230
C2076       C  0.08340821  0.62400327  0.88109014    -0.21130
C2077       C  0.07851238  0.59404414  0.88604052    -0.07650
C2078       C  0.04785043  0.56892031  0.89230319     0.13210
C2079       C  0.04017946  0.53620073  0.89926646    -0.24480
H2080       H  0.00015571  0.55511601  0.89745918     0.14500
H2081       H  0.10676066  0.64366875  0.87891158     0.14530
C2082       C  0.06569369  0.66227014  0.87752657    -0.24430
H2083       H  0.01484059  0.51929194  0.90073294     0.04740
H2084       H  0.05039319  0.53555361  0.92346914     0.07970
H2085       H  0.04917569  0.52832320  0.87882981     0.07970
H2086       H  0.05793681  0.66955362  0.89995997     0.07950
H2087       H  0.05353209  0.66333876  0.85507677     0.07950
H2088       H  0.09082448  0.67928584  0.87429083     0.04730
C2089       C  0.30017760  0.60756952  0.83960190    -0.21080
C2090       C  0.28198500  0.59796441  0.86850876    -0.07640
C2091       C  0.29324600  0.59025146  0.89701080     0.13230
C2092       C  0.32066701  0.58987063  0.89462568    -0.21130
C2093       C  0.33743125  0.59691005  0.86479725    -0.07650
C2094       C  0.32765043  0.60729352  0.83728385     0.13210
C2095       C  0.34557515  0.61801967  0.80512022    -0.24480
H2096       H  0.29237510  0.61449883  0.81810080     0.14500
H2097       H  0.32843510  0.58284114  0.91606982     0.14530
C2098       C  0.27647062  0.58144019  0.92996415    -0.24430
H2099       H  0.33539247  0.62715123  0.78751756     0.04740
H2100       H  0.34535368  0.59815613  0.79222601     0.07970
H2101       H  0.36972988  0.63721064  0.81042231     0.07970
H2102       H  0.25345998  0.55966033  0.92693481     0.07950
H2103       H  0.27386375  0.60084522  0.93948487     0.07950
H2104       H  0.28926261  0.57696026  0.94932097     0.04730
C2105       C  0.02381699  0.85270101  0.96711504    -0.21080
C2106       C  0.49177629  0.83916136  0.96742823    -0.07640
C2107       C  0.47564082  0.82914088  0.49822929     0.13230
C2108       C  0.49238737  0.83615981  0.52820686    -0.21130
C2109       C  0.02464010  0.85319616  0.52807029    -0.07650
C2110       C  0.04055799  0.86006832  0.99716828     0.13210
C2111       C  0.07530041  0.87580113  0.99572654    -0.24480
H2112       H  0.03596048  0.85961406  0.94353712     0.14500
H2113       H  0.48036512  0.83057198  0.55187892     0.14530
C2114       C  0.44076134  0.81151908  0.49990937    -0.24430
H2115       H  0.08348215  0.87732796  0.96967261     0.04740
H2116       H  0.08272444  0.86213836  0.01019683     0.07970
H2117       H  0.08673880  0.90002165  0.50600592     0.07970
H2118       H  0.43079785  0.79042711  0.98340822     0.07950
H2119       H  0.43190798  0.82660011  0.49237519     0.07950
H2120       H  0.43235230  0.80359884  0.52563023     0.04730
C2121       C  0.46655820  0.83724342  0.74408266    -0.21080
C2122       C  0.48155347  0.86002385  0.76945015    -0.07640
C2123       C  0.01292550  0.88369808  0.76545625     0.13230
C2124       C  0.02841023  0.88369720  0.73666278    -0.21130
C2125       C  0.01404958  0.86067508  0.71152702    -0.07650
C2126       C  0.48222393  0.83750569  0.71484892     0.13210
C2127       C  0.46448086  0.81318350  0.68800159    -0.24480
H2128       H  0.44243720  0.81916939  0.74720471     0.14500
H2129       H  0.05229202  0.90212034  0.73387513     0.14530
C2130       C  0.03105772  0.90823405  0.79199500    -0.24430
H2131       H  0.43996956  0.79702750  0.69508920     0.04740
H2132       H  0.47509232  0.79893075  0.68352387     0.07970
H2133       H  0.46450361  0.82478801  0.66460179     0.07970
H2134       H  0.03204699  0.89675875  0.81490656     0.07950
H2135       H  0.02031238  0.92219723  0.79707862     0.07950
H2136       H  0.05531831  0.92484116  0.78441392     0.04730
C2137       C  0.43487786  0.96537123  0.84606430    -0.21080
C2138       C  0.42567044  0.94259382  0.87067979    -0.07640
C2139       C  0.41757210  0.94850843  0.90270560     0.13230
C2140       C  0.41743837  0.97608559  0.90858346    -0.21130
C2141       C  0.42481147  0.99770354  0.88325395    -0.07650
C2142       C  0.43457537  0.99276452  0.85194568     0.13210
C2143       C  0.44504488  0.01643648  0.82472519    -0.24480
H2144       H  0.44176747  0.96149114  0.82170855     0.14500
H2145       H  0.41048087  0.98028879  0.93275378     0.14530
C2146       C  0.40930971  0.92629096  0.93099654    -0.24430
H2147       H  0.45368844  0.00973307  0.80259215     0.04740
H2148       H  0.46395737  0.53961487  0.83411778     0.07970
H2149       H  0.42523529  0.01809850  0.81646019     0.07970
H2150       H  0.42834183  0.92192127  0.93509871     0.07950
H2151       H  0.38738575  0.90413825  0.92501030     0.07950
H2152       H  0.40576625  0.93576402  0.95471335     0.04730
C2153       C  0.40843140  0.68917253  0.90118468    -0.21080
C2154       C  0.42760215  0.68841825  0.87625102    -0.07640
C2155       C  0.44572288  0.71503797  0.85656523     0.13230
C2156       C  0.44347599  0.74120246  0.86147603    -0.21130
C2157       C  0.42412955  0.74216255  0.88586778    -0.07650
C2158       C  0.40647133  0.71594680  0.90628981     0.13210
C2159       C  0.38511855  0.71576061  0.93256571    -0.24480
H2160       H  0.39484544  0.66873671  0.91640466     0.14500
H2161       H  0.45779539  0.76161501  0.84646213     0.14530
C2162       C  0.46897380  0.71714656  0.83151391    -0.24430
H2163       H  0.37210059  0.69282183  0.94512669     0.04740
H2164       H  0.36812222  0.72043092  0.92094130     0.07970
H2165       H  0.39866727  0.73395774  0.95194496     0.07970
H2166       H  0.45736694  0.69896262  0.81176728     0.07950
H2167       H  0.98680452  0.71469479  0.84449226     0.07950
H2168       H  0.98122229  0.74006957  0.81884807     0.04730
C2169       C  0.06621588  0.98547019  0.85873453    -0.21080
C2170       C  0.09242143  0.98509565  0.86913328    -0.07640
C2171       C  0.08790854  0.95598022  0.87958100     0.13230
C2172       C  0.05753182  0.92981258  0.88291360    -0.21130
C2173       C  0.03124876  0.93114127  0.87493267    -0.07650
C2174       C  0.03602745  0.95948176  0.86192916     0.13210
C2175       C  0.00968818  0.96248614  0.84980560    -0.24480
H2176       H  0.06933947  0.50658731  0.84805508     0.14500
H2177       H  0.05438348  0.90781270  0.89105568     0.14530
C2178       C  0.11410313  0.95071747  0.88586623    -0.24430
H2179       H  0.01769458  0.98595181  0.83955227     0.04740
H2180       H  0.49383260  0.95880791  0.87074196     0.07970
H2181       H  0.49738031  0.94525803  0.82934383     0.07970
H2182       H  0.11620934  0.94811650  0.91303505     0.07950
H2183       H  0.13650182  0.96940315  0.87598000     0.07950
H2184       H  0.10923638  0.92890984  0.87270187     0.04730
C2185       C  0.30403886  0.74375026  0.89353167    -0.21080
C2186       C  0.33016700  0.74675415  0.87800800    -0.07640
C2187       C  0.32759451  0.72072372  0.86062285     0.13230
C2188       C  0.29911861  0.69211066  0.86037201    -0.21130
C2189       C  0.27303998  0.68899912  0.87652377    -0.07650
C2190       C  0.27553025  0.71538373  0.89302471     0.13210
C2191       C  0.24800383  0.71450204  0.90853041    -0.24480
H2192       H  0.30574798  0.76414557  0.90522510     0.14500
H2193       H  0.29714477  0.67215488  0.84699780     0.14530
C2194       C  0.35402624  0.72220868  0.84184969    -0.24430
H2195       H  0.25405462  0.73770402  0.91897791     0.04740
H2196       H  0.23891095  0.69766752  0.92930881     0.07970
H2197       H  0.22976067  0.70760680  0.88926349     0.07970
H2198       H  0.35983491  0.70572848  0.85288261     0.07950
H2199       H  0.37493362  0.74593112  0.84218548     0.07950
H2200       H  0.34718512  0.71533455  0.81532706     0.04730
C2201       C  0.33062609  0.83930584  0.01115592    -0.21080
C2202       C  0.35310876  0.86358272  0.53167715    -0.07640
C2203       C  0.38377479  0.88171246  0.52013388     0.13230
C2204       C  0.39135310  0.87471570  0.48912940    -0.21130
C2205       C  0.36903832  0.85122137  0.96778290    -0.07650
C2206       C  0.33824644  0.83290103  0.97924188     0.13210
C2207       C  0.31381611  0.80599155  0.95877073    -0.24480
H2208       H  0.30686194  0.82616068  0.01955804     0.14500
H2209       H  0.41524353  0.88835960  0.48128778     0.14530
C2210       C  0.40879830  0.90913295  0.54000367    -0.24430
H2211       H  0.29102513  0.79418336  0.97141584     0.04740
H2212       H  0.32080434  0.78859577  0.95513144     0.07970
H2213       H  0.31106444  0.81435060  0.93428291     0.07970
H2214       H  0.41188864  0.90094310  0.56421065     0.07950
H2215       H  0.40276521  0.92721181  0.54419081     0.07950
H2216       H  0.43145263  0.92056685  0.52708653     0.04730
C2217       C  0.36873917  0.83665985  0.75368549    -0.21080
C2218       C  0.36363454  0.85063746  0.78159049    -0.07640
C2219       C  0.35051230  0.86916796  0.77667308     0.13230
C2220       C  0.34394676  0.87412418  0.74402971    -0.21130
C2221       C  0.35031904  0.86131768  0.71586114    -0.07650
C2222       C  0.36220980  0.84163906  0.72099424     0.13210
C2223       C  0.37036454  0.82772694  0.69221400    -0.24480
H2224       H  0.37911014  0.82273988  0.75743371     0.14500
H2225       H  0.33496731  0.88929591  0.74042615     0.14530
C2226       C  0.34540863  0.88562492  0.80549950    -0.24430
H2227       H  0.38008740  0.81363110  0.70074411     0.04740
H2228       H  0.38809326  0.84693159  0.67680691     0.07970
H2229       H  0.34943194  0.81215242  0.67693763     0.07970
H2230       H  0.36764883  0.90131279  0.81872991     0.07950
H2231       H  0.32852559  0.86813532  0.82312851     0.07950
H2232       H  0.33613012  0.90014012  0.79703582     0.04730
O2233       O  0.94146944  0.41365373  0.33757019    -0.80910
O2234       O  0.95715992  0.34816529  0.43942652    -0.80930
O2235       O  0.86605705  0.33391214  0.40920242    -0.80940
O2236       O  0.99766157  0.37623414  0.36403676    -0.80880
O2237       O  0.90836950  0.35205308  0.43666718    -0.81000
O2238       O  0.97570671  0.40211115  0.38149322    -0.80920
O2239       O  0.97834477  0.32823219  0.40882847    -0.80910
O2240       O  0.90951744  0.38825761  0.37869429    -0.80950
C2241       C  0.92531822  0.41355431  0.36174206     1.08780
C2242       C  0.97579025  0.33918300  0.43672259     1.08670
C2243       C  0.88102158  0.34532917  0.43626794     1.08800
C2244       C  0.99994319  0.40153411  0.37474137     1.08680
O2245       O  0.96678470  0.38046956  0.31522988    -0.80910
O2246       O  0.87145832  0.28681743  0.41027926    -0.80990
O2247       O  0.86091384  0.34397805  0.34124574    -0.80920
O2248       O  0.93010701  0.28692771  0.36182375    -0.80900
O2249       O  0.92248220  0.28319461  0.41584988    -0.80950
O2250       O  0.90394765  0.35404342  0.31613547    -0.80920
O2251       O  0.95136330  0.33127700  0.31558236    -0.80880
O2252       O  0.86953137  0.29548693  0.35662396    -0.80950
Co2253     Co  0.93870475  0.37673350  0.35250020     1.51530
Co2254     Co  0.91558894  0.31913048  0.42362893     1.51690
Co2255     Co  0.89117506  0.34091924  0.36641504     1.51570
Co2256     Co  0.96222131  0.33090838  0.36290905     1.51470
O2257       O  0.92883436  0.33886891  0.37858722    -1.42840
C2258       C  0.96511520  0.35703786  0.30098437     1.08710
C2259       C  0.85925723  0.27740357  0.38133579     1.08800
C2260       C  0.87637116  0.34939942  0.31455193     1.08740
C2261       C  0.92416821  0.27151855  0.38813782     1.08710
O2262       O  0.96273083  0.12404968  0.31298864    -0.80910
O2263       O  0.92997703  0.04017024  0.41611699    -0.80930
O2264       O  0.49722401  0.12524415  0.37383211    -0.80940
O2265       O  0.86996127  0.03879966  0.33617027    -0.80880
O2266       O  0.98283737  0.09368468  0.41535760    -0.81000
O2267       O  0.91199727  0.06888195  0.30834769    -0.80920
O2268       O  0.90727755  0.03115882  0.36880051    -0.80910
O2269       O  0.98420482  0.16440432  0.34626700    -0.80950
C2270       C  0.98113210  0.15274785  0.31713698     1.08780
C2271       C  0.92086052  0.02441182  0.38956501     1.08670
C2272       C  0.50173142  0.10816133  0.39236417     1.08800
C2273       C  0.88656506  0.04375148  0.31013328     1.08680
O2274       O  0.87608750  0.09255259  0.33530725    -0.80910
O2275       O  0.95429673  0.12778242  0.43946157    -0.80990
O2276       O  0.93687518  0.14995954  0.39594664    -0.80920
O2277       O  0.86131390  0.02724914  0.41013535    -0.80900
O2278       O  0.89613272  0.06987501  0.43707308    -0.80950
O2279       O  0.92798595  0.14955655  0.34252206    -0.80920
O2280       O  0.87323553  0.08466042  0.38841065    -0.80880
O2281       O  0.99582558  0.16715934  0.41721677    -0.80950
Co2282     Co  0.92060013  0.10782741  0.32754721     1.51530
Co2283     Co  0.93987304  0.08410599  0.42204584     1.51690
Co2284     Co  0.96622544  0.13600688  0.38624410     1.51570
Co2285     Co  0.89190217  0.05864473  0.38072078     1.51470
O2286       O  0.93260427  0.09450657  0.37026526    -1.42840
C2287       C  0.86391041  0.09187445  0.36296434     1.08710
C2288       C  0.98228802  0.15094417  0.44286985     1.08800
C2289       C  0.92975885  0.16054452  0.37166498     1.08740
C2290       C  0.87276772  0.04163513  0.43801937     1.08710
O2291       O  0.52410895  0.39279815  0.11852703    -0.80910
O2292       O  0.65198657  0.48135365  0.09280121    -0.80930
O2293       O  0.59097861  0.47547004  0.17432588    -0.80940
O2294       O  0.56031082  0.39769585  0.05838839    -0.80880
O2295       O  0.61463781  0.48811507  0.12803440    -0.81000
O2296       O  0.53777013  0.35496339  0.08645518    -0.80920
O2297       O  0.61090686  0.45318081  0.06151282    -0.80910
O2298       O  0.53753108  0.42316930  0.16238965    -0.80950
C2299       C  0.51958180  0.40987859  0.13787195     1.08780
C2300       C  0.63625056  0.47827667  0.06654773     1.08670
C2301       C  0.60195270  0.49444070  0.15091103     1.08800
C2302       C  0.54132554  0.36890686  0.05918351     1.08680
O2303       O  0.58242266  0.36511620  0.13756859    -0.80910
O2304       O  0.65866700  0.48642742  0.16688352    -0.80990
O2305       O  0.56223484  0.38498549  0.18174816    -0.80920
O2306       O  0.64585252  0.42799202  0.08418147    -0.80900
O2307       O  0.64734777  0.43155779  0.13801743    -0.80950
O2308       O  0.52223640  0.34670404  0.15573728    -0.80920
O2309       O  0.59418498  0.36980634  0.08476826    -0.80880
O2310       O  0.62229456  0.44304718  0.19103353    -0.80950
Co2311     Co  0.55405637  0.38041896  0.12951638     1.51530
Co2312     Co  0.62874078  0.45823734  0.13482152     1.51690
Co2313     Co  0.57936837  0.43065291  0.17242620     1.51570
Co2314     Co  0.60179341  0.41288654  0.07525836     1.51470
O2315       O  0.58867696  0.42357635  0.11963519    -1.42840
C2316       C  0.59091753  0.35628706  0.11235553     1.08710
C2317       C  0.64706184  0.47071549  0.19352201     1.08800
C2318       C  0.53337454  0.36332184  0.18224723     1.08740
C2319       C  0.65790900  0.42727448  0.11122414     1.08710
O2320       O  0.68846238  0.15167202  0.34469145    -0.80910
O2321       O  0.64547474  0.01891708  0.38843325    -0.80930
O2322       O  0.67683300  0.05994371  0.31142139    -0.80940
O2323       O  0.60434102  0.06991616  0.40754909    -0.80880
O2324       O  0.69385375  0.03801821  0.34506513    -0.81000
O2325       O  0.63171870  0.10852997  0.37300198    -0.80920
O2326       O  0.62312721  0.04083613  0.36374059    -0.80910
O2327       O  0.67371332  0.11129717  0.31243089    -0.80950
C2328       C  0.67921522  0.13858726  0.31658045     1.08780
C2329       C  0.62236806  0.01623522  0.37261458     1.08670
C2330       C  0.68335297  0.03945575  0.31671139     1.08800
C2331       C  0.60587713  0.09048613  0.38870693     1.08680
O2332       O  0.67578065  0.15775209  0.40732642    -0.80910
O2333       O  0.73451171  0.08709154  0.39283266    -0.80990
O2334       O  0.73564724  0.14652555  0.34317363    -0.80920
O2335       O  0.63978304  0.05132290  0.43257178    -0.80900
O2336       O  0.68817500  0.06682010  0.43733762    -0.80950
O2337       O  0.72388644  0.14837494  0.39615013    -0.80920
O2338       O  0.65965344  0.11286995  0.43219034    -0.80880
O2339       O  0.73913653  0.09463580  0.33895720    -0.80950
Co2340     Co  0.67929588  0.12626237  0.38558642     1.51530
Co2341     Co  0.69034716  0.05524038  0.39040029     1.51690
Co2342     Co  0.70448278  0.10218374  0.32865252     1.51570
Co2343     Co  0.64313272  0.07754201  0.39449710     1.51470
O2344       O  0.68285279  0.08904999  0.37309326    -1.42840
C2345       C  0.66447853  0.14104721  0.43273462     1.08710
C2346       C  0.75064735  0.09387432  0.36691771     1.08800
C2347       C  0.74292047  0.15934958  0.37217087     1.08740
C2348       C  0.66164580  0.05373763  0.44984771     1.08710
O2349       O  0.53319130  0.12011811  0.17394046    -0.80910
O2350       O  0.62089226  0.20224372  0.05178488    -0.80930
O2351       O  0.52842914  0.17379804  0.09853120    -0.80940
O2352       O  0.59377686  0.11896968  0.12469788    -0.80880
O2353       O  0.56242907  0.16496796  0.07328952    -0.81000
O2354       O  0.58449917  0.11510859  0.17816941    -0.80920
O2355       O  0.62554534  0.16650716  0.07798004    -0.80910
O2356       O  0.53624326  0.12726165  0.12044224    -0.80950
C2357       C  0.52206082  0.11025496  0.14478577     1.08780
C2358       C  0.62601801  0.18000609  0.05095226     1.08670
C2359       C  0.53849047  0.16779741  0.07205627     1.08800
C2360       C  0.58761737  0.10341343  0.15115063     1.08680
O2361       O  0.62001520  0.17885391  0.20560984    -0.80910
O2362       O  0.59571723  0.22954678  0.09068947    -0.80990
O2363       O  0.53204465  0.16970230  0.16954791    -0.80920
O2364       O  0.66440902  0.20646864  0.13209451    -0.80900
O2365       O  0.64315617  0.23101884  0.11271012    -0.80950
O2366       O  0.57173120  0.18477783  0.20135301    -0.80920
O2367       O  0.63962614  0.15849128  0.17361161    -0.80880
O2368       O  0.57520497  0.21876073  0.13884280    -0.80950
Co2369     Co  0.57838040  0.15152254  0.18690567     1.51530
Co2370     Co  0.60415599  0.19526651  0.09601472     1.51690
Co2371     Co  0.55737789  0.17346458  0.12835894     1.51570
Co2372     Co  0.62717371  0.16340076  0.12816686     1.51470
O2373       O  0.59506461  0.17601423  0.14320247    -1.42840
C2374       C  0.63939035  0.17084804  0.20111548     1.08710
C2375       C  0.58668419  0.23796445  0.11563672     1.08800
C2376       C  0.54554923  0.18079194  0.19754713     1.08740
C2377       C  0.66591810  0.23169408  0.12549317     1.08710
O2378       O  0.91141250  0.43690547  0.15878660    -0.80910
O2379       O  0.84000549  0.44981300  0.05362386    -0.80930
O2380       O  0.83317753  0.36150054  0.08731681    -0.80940
O2381       O  0.87697683  0.49397988  0.13298677    -0.80880
O2382       O  0.84552864  0.40120704  0.05600956    -0.81000
O2383       O  0.89964755  0.46970998  0.11327387    -0.80920
O2384       O  0.82799820  0.47599933  0.08850899    -0.80910
O2385       O  0.88637186  0.40418667  0.11748198    -0.80950
C2386       C  0.91065278  0.41862908  0.13622282     1.08780
C2387       C  0.83583607  0.47191598  0.05952446     1.08670
C2388       C  0.84328779  0.37547583  0.05987210     1.08800
C2389       C  0.90124159  0.49501016  0.12178050     1.08680
O2390       O  0.87950414  0.46238665  0.17987422    -0.80910
O2391       O  0.78408361  0.36409928  0.08715023    -0.80990
O2392       O  0.84367640  0.35681902  0.15551587    -0.80920
O2393       O  0.78605917  0.43002988  0.13605772    -0.80900
O2394       O  0.77924090  0.41615508  0.08303568    -0.80950
O2395       O  0.85270198  0.40038666  0.17982458    -0.80920
O2396       O  0.83141295  0.44833152  0.18097066    -0.80880
O2397       O  0.79596265  0.36531113  0.14034755    -0.80950
Co2398     Co  0.87473677  0.43368758  0.14273363     1.51530
Co2399     Co  0.81392188  0.40870068  0.07257237     1.51690
Co2400     Co  0.84018932  0.38700411  0.12992666     1.51570
Co2401     Co  0.83089827  0.45958393  0.13386409     1.51470
O2402       O  0.83692266  0.42435869  0.11686149    -1.42840
C2403       C  0.85720913  0.46108923  0.19531289     1.08710
C2404       C  0.77737171  0.35235368  0.11621606     1.08800
C2405       C  0.84868098  0.37286095  0.18217107     1.08740
C2406       C  0.76911778  0.42055317  0.11042609     1.08710
C2407       C  0.93524396  0.04855203  0.14717822    -0.21080
C2408       C  0.93235329  0.02523018  0.12466850    -0.07640
C2409       C  0.95968734  0.03049121  0.10850762     0.13230
C2410       C  0.98850140  0.05816901  0.11568601    -0.21130
C2411       C  0.99126120  0.08069989  0.13912098    -0.07650
C2412       C  0.96401411  0.07589665  0.15452320     0.13210
C2413       C  0.96487547  0.10029226  0.17765099    -0.24480
H2414       H  0.91483387  0.04521492  0.15977063     0.14500
H2415       H  0.50917339  0.06213788  0.10312229     0.14530
C2416       C  0.95888144  0.00744779  0.08328506    -0.24430
H2417       H  0.94154874  0.09317774  0.18717559     0.04740
H2418       H  0.97376175  0.12238393  0.16388837     0.07970
H2419       H  0.98002693  0.10437272  0.19948504     0.07970
H2420       H  0.94202985  0.50305182  0.06311729     0.07950
H2421       H  0.95235806  0.48514448  0.09552796     0.07950
H2422       H  0.98181993  0.01633884  0.07157361     0.04730
C2423       C  0.72256474  0.26451365  0.12006873    -0.21080
C2424       C  0.69498209  0.26238480  0.12972689    -0.07640
C2425       C  0.69524206  0.29029011  0.13742616     0.13230
C2426       C  0.72241632  0.31943718  0.13260178    -0.21130
C2427       C  0.74939613  0.32137501  0.12112409    -0.07650
C2428       C  0.74971672  0.29364802  0.11552699     0.13210
C2429       C  0.77839300  0.29460703  0.10378410    -0.24480
H2430       H  0.72245128  0.24329197  0.11410569     0.14500
H2431       H  0.72252464  0.34078129  0.13778600     0.14530
C2432       C  0.66762827  0.29036635  0.15131574    -0.24430
H2433       H  0.77461715  0.27078090  0.10093737     0.04740
H2434       H  0.79738842  0.30782462  0.12216390     0.07970
H2435       H  0.78525743  0.30593750  0.07910696     0.07970
H2436       H  0.64816138  0.26671173  0.15755254     0.07950
H2437       H  0.65956501  0.30105288  0.13308444     0.07950
H2438       H  0.67440321  0.30451083  0.17483132     0.04730
C2439       C  0.65297066  0.18039578  0.26121384    -0.21080
C2440       C  0.65771181  0.17079067  0.22970364    -0.07640
C2441       C  0.67603541  0.15705178  0.22747035     0.13230
C2442       C  0.68480154  0.14910146  0.25684548    -0.21130
C2443       C  0.67613334  0.15472930  0.28809314    -0.07650
C2444       C  0.66205606  0.17252951  0.29054495     0.13210
C2445       C  0.65439441  0.18104918  0.32377609    -0.24480
H2446       H  0.64015678  0.19213349  0.26315098     0.14500
H2447       H  0.69704123  0.13672527  0.25538720     0.14530
C2448       C  0.68545272  0.14918715  0.19472893    -0.24430
H2449       H  0.64195119  0.19369135  0.32111063     0.04740
H2450       H  0.67594267  0.19626620  0.33830394     0.07970
H2451       H  0.63942397  0.15934463  0.33756037     0.07970
H2452       H  0.69688559  0.17019491  0.17879355     0.07950
H2453       H  0.66499999  0.12965720  0.18168381     0.07950
H2454       H  0.70212926  0.14146507  0.19845371     0.04730
C2455       C  0.64427253  0.13298851  0.98985833    -0.21080
C2456       C  0.65579019  0.15277601  0.46249996    -0.07640
C2457       C  0.65566477  0.18111571  0.46342828     0.13230
C2458       C  0.64499735  0.18901443  0.99218410    -0.21130
C2459       C  0.63406088  0.16932864  0.01981298    -0.07650
C2460       C  0.63315632  0.14044504  0.01810287     0.13210
C2461       C  0.62045523  0.11666703  0.04553746    -0.24480
H2462       H  0.64369684  0.11107356  0.98920983     0.14500
H2463       H  0.64563587  0.21095116  0.99325311     0.14530
C2464       C  0.66625308  0.20316967  0.43444927    -0.24430
H2465       H  0.61874975  0.09440202  0.03798276     0.04740
H2466       H  0.59679101  0.11082290  0.05227596     0.07970
H2467       H  0.63619547  0.12598703  0.06750720     0.07970
H2468       H  0.65177312  0.19099262  0.41206988     0.07950
H2469       H  0.69090956  0.21199279  0.42907556     0.07950
H2470       H  0.66424267  0.22383138  0.43979700     0.04730
C2471       C  0.62021705  0.49670662  0.51916816    -0.21080
C2472       C  0.64463041  0.50231967  0.04061015    -0.07640
C2473       C  0.67462478  0.02778664  0.03408507     0.13230
C2474       C  0.67952141  0.04540941  0.00499458    -0.21130
C2475       C  0.65514559  0.03773800  0.48231264    -0.07650
C2476       C  0.62497061  0.51281193  0.48982552     0.13210
C2477       C  0.59746358  0.50101527  0.46649509    -0.24480
H2478       H  0.59672720  0.47822284  0.52453862     0.14500
H2479       H  0.70262337  0.06459035  0.99942027     0.14530
C2480       C  0.70134401  0.03595354  0.05697887    -0.24430
H2481       H  0.57628903  0.48014649  0.47620535     0.04740
H2482       H  0.60253518  0.49381414  0.44217356     0.07970
H2483       H  0.59178498  0.51934999  0.46300169     0.07970
H2484       H  0.70480706  0.01590154  0.05832161     0.07950
H2485       H  0.69656872  0.04162395  0.08234554     0.07950
H2486       H  0.72316673  0.05658259  0.04807533     0.04730
C2487       C  0.65759547  0.98759519  0.28795970    -0.21080
C2488       C  0.68067111  0.01929622  0.28802550    -0.07640
C2489       C  0.69677606  0.03285587  0.25816787     0.13230
C2490       C  0.68703606  0.01536958  0.22819042    -0.21130
C2491       C  0.66129274  0.48458505  0.22704333    -0.07650
C2492       C  0.64773158  0.46993281  0.25793621     0.13210
C2493       C  0.62176373  0.43633597  0.25980741    -0.24480
H2494       H  0.64558267  0.97728383  0.31103593     0.14500
H2495       H  0.69851783  0.02663893  0.20522896     0.14530
C2496       C  0.72382639  0.06619948  0.25771184    -0.24430
H2497       H  0.61525689  0.42867614  0.28599289     0.04740
H2498       H  0.62869010  0.42087360  0.24771681     0.07970
H2499       H  0.60112836  0.43367880  0.24734670     0.07970
H2500       H  0.74184811  0.06903216  0.27558112     0.07950
H2501       H  0.71631900  0.08269258  0.26471397     0.07950
H2502       H  0.73446136  0.07272694  0.23258550     0.04730
C2503       C  0.58593406  0.02915282  0.17840776    -0.21080
C2504       C  0.59932531  0.02304538  0.15069998    -0.07640
C2505       C  0.60833407  0.04354691  0.12327828     0.13230
C2506       C  0.60316357  0.06850290  0.12410112    -0.21130
C2507       C  0.58929772  0.07431754  0.15140901    -0.07650
C2508       C  0.58033720  0.05393170  0.17896765     0.13210
C2509       C  0.56425888  0.05743918  0.20890817    -0.24480
H2510       H  0.57912470  0.01396686  0.19974253     0.14500
H2511       H  0.61054841  0.08395480  0.10315037     0.14530
C2512       C  0.62334043  0.03956273  0.09274286    -0.24430
H2513       H  0.55686872  0.03805591  0.22672608     0.04740
H2514       H  0.54323022  0.05718592  0.20072384     0.07970
H2515       H  0.58012769  0.07959393  0.22262512     0.07970
H2516       H  0.60709886  0.01663942  0.08063643     0.07950
H2517       H  0.64519542  0.04102379  0.09985302     0.07950
H2518       H  0.62919704  0.05792781  0.07401522     0.04730
C2519       C  0.60677929  0.29097013  0.09235875    -0.21080
C2520       C  0.58931055  0.26907366  0.11705107    -0.07640
C2521       C  0.57427338  0.27720911  0.14148055     0.13230
C2522       C  0.57645131  0.30627788  0.13980203    -0.21130
C2523       C  0.59292056  0.32765915  0.11432559    -0.07650
C2524       C  0.60878793  0.31996599  0.09060365     0.13210
C2525       C  0.62829946  0.34214905  0.06357158    -0.24480
H2526       H  0.61880973  0.28525864  0.07391856     0.14500
H2527       H  0.56418163  0.31184872  0.15807713     0.14530
C2528       C  0.55511718  0.25534130  0.16899522    -0.24430
H2529       H  0.64075044  0.33318943  0.04889711     0.04740
H2530       H  0.64585143  0.36487860  0.07503225     0.07970
H2531       H  0.61359286  0.34552517  0.04584452     0.07970
H2532       H  0.56988790  0.25056345  0.18511286     0.07950
H2533       H  0.53587898  0.23310971  0.15811045     0.07950
H2534       H  0.54467139  0.26547159  0.18527243     0.04730
C2535       C  0.72694186  0.42208018  0.08140731    -0.21080
C2536       C  0.73849328  0.41812811  0.11140649    -0.07640
C2537       C  0.72209156  0.41510314  0.14135097     0.13230
C2538       C  0.69561243  0.41747847  0.14038794    -0.21130
C2539       C  0.68511116  0.42321846  0.11050262    -0.07650
C2540       C  0.70110390  0.42523411  0.08039513     0.13210
C2541       C  0.69223413  0.43174411  0.04682747    -0.24480
H2542       H  0.73908837  0.42412885  0.05846729     0.14500
H2543       H  0.68333923  0.41536358  0.16332813     0.14530
C2544       C  0.73199497  0.40918076  0.17448191    -0.24430
H2545       H  0.70813769  0.43348379  0.02669379     0.04740
H2546       H  0.69324690  0.45440245  0.04788891     0.07970
H2547       H  0.66869928  0.41249363  0.03943044     0.07970
H2548       H  0.75440628  0.42988965  0.18250147     0.07950
H2549       H  0.73411431  0.38828436  0.17243214     0.07950
H2550       H  0.71500335  0.40480617  0.19443136     0.04730
C2551       C  0.96676711  0.44240304  0.13976982    -0.21080
C2552       C  0.93813482  0.41591855  0.13109714    -0.07640
C2553       C  0.93712412  0.38805795  0.12080881     0.13230
C2554       C  0.96451618  0.38743752  0.12160455    -0.21130
C2555       C  0.99253845  0.41330703  0.13303881    -0.07650
C2556       C  0.99375969  0.44148427  0.14093564     0.13210
C2557       C  0.52347594  0.47102161  0.15002782    -0.24480
H2558       H  0.96797503  0.46403895  0.14658139     0.14500
H2559       H  0.96359312  0.36592973  0.11485409     0.14530
C2560       C  0.90815735  0.35801525  0.11006521    -0.24430
H2561       H  0.52051985  0.49138659  0.15278434     0.04740
H2562       H  0.54056359  0.47634435  0.12995483     0.07970
H2563       H  0.53217475  0.46820956  0.17424226     0.07970
H2564       H  0.90540024  0.33842849  0.12531782     0.07950
H2565       H  0.88670415  0.35829824  0.11260995     0.07950
H2566       H  0.91035444  0.35271249  0.08353792     0.04730
C2567       C  0.98881631  0.13060907  0.99564223    -0.21080
C2568       C  0.99752904  0.15687706  0.47586834    -0.07640
C2569       C  0.51989604  0.18696590  0.48822473     0.13230
C2570       C  0.53228066  0.18988007  0.02037054    -0.21130
C2571       C  0.52292067  0.16348573  0.04002483    -0.07650
C2572       C  0.50101447  0.13354331  0.02765947     0.13210
C2573       C  0.49071906  0.10477495  0.04812135    -0.24480
H2574       H  0.97295363  0.10747483  0.98557243     0.14500
H2575       H  0.54965565  0.21279663  0.03009811     0.14530
C2576       C  0.53054816  0.21590667  0.46801774    -0.24430
H2577       H  0.97312551  0.08310339  0.03472528     0.04740
H2578       H  0.98037090  0.10665079  0.07184586     0.07970
H2579       H  0.51085451  0.10253438  0.05385992     0.07970
H2580       H  0.51041478  0.21780641  0.46117148     0.07950
H2581       H  0.54223906  0.21481218  0.44503163     0.07950
H2582       H  0.54728649  0.23747606  0.48217711     0.04730
C2583       C  0.52943445  0.18967229  0.28818039    -0.21080
C2584       C  0.99728242  0.17098516  0.28743313    -0.07640
C2585       C  0.98145700  0.16431874  0.25634660     0.13230
C2586       C  0.99833415  0.17160501  0.22663132    -0.21130
C2587       C  0.53038490  0.18494679  0.22734371    -0.07650
C2588       C  0.54640035  0.19702430  0.25845653     0.13210
C2589       C  0.58124179  0.21622042  0.26127595    -0.24480
H2590       H  0.54138305  0.19579425  0.31206918     0.14920
H2591       H  0.98613995  0.16447858  0.20294626     0.14530
C2592       C  0.94669237  0.14863512  0.25416169    -0.24430
H2593       H  0.58893076  0.22703887  0.28655654     0.04740
H2594       H  0.59077751  0.23547863  0.24301782     0.07970
H2595       H  0.59114487  0.20129756  0.25711391     0.07970
H2596       H  0.93913340  0.16263860  0.26824131     0.07950
H2597       H  0.93489095  0.12472039  0.26425670     0.07950
H2598       H  0.93869073  0.14649347  0.22792204     0.04730
C2599       C  0.83289309  0.49697727  0.47166806    -0.21080
C2600       C  0.85999426  0.02673590  0.47111545    -0.07640
C2601       C  0.87589683  0.04014961  0.00203084     0.13230
C2602       C  0.86535697  0.02282507  0.03152619    -0.21130
C2603       C  0.83993010  0.49227841  0.03117627    -0.07650
C2604       C  0.82286987  0.47954702  0.50113321     0.13210
C2605       C  0.79421758  0.44726553  0.49996631    -0.24480
H2606       H  0.82019430  0.48660981  0.44862282     0.14500
H2607       H  0.87853518  0.03222691  0.05451569     0.14530
C2608       C  0.90538369  0.07166699  0.00433759    -0.24430
H2609       H  0.78322557  0.44123543  0.47481580     0.04740
H2610       H  0.77717261  0.44626741  0.01803096     0.07970
H2611       H  0.79990677  0.42939025  0.50627917     0.07970
H2612       H  0.90136649  0.09019755  0.99578585     0.07950
H2613       H  0.92312535  0.07099134  0.48886175     0.07950
H2614       H  0.91463124  0.07792931  0.03025895     0.04730
C2615       C  0.84910762  0.99380050  0.27928139    -0.21080
C2616       C  0.87863436  0.02112716  0.28176446    -0.07640
C2617       C  0.90088925  0.02687142  0.25633284     0.13230
C2618       C  0.89288832  0.00543571  0.23023833    -0.21130
C2619       C  0.86325517  0.47912574  0.22684565    -0.07650
C2620       C  0.84094030  0.97292153  0.25173156     0.13210
C2621       C  0.80884803  0.44433591  0.24966301    -0.24480
H2622       H  0.83217973  0.98914907  0.29844146     0.14500
H2623       H  0.90987489  0.51029447  0.21105081     0.14530
C2624       C  0.93326517  0.05571725  0.25476032    -0.24430
H2625       H  0.79502582  0.94230718  0.27208463     0.04740
H2626       H  0.81019603  0.42297691  0.24774187     0.07970
H2627       H  0.79646029  0.44560862  0.22755740     0.07970
H2628       H  0.94688246  0.05827065  0.27743806     0.07950
H2629       H  0.93191740  0.07685891  0.25138965     0.07950
H2630       H  0.94678403  0.05482620  0.23338653     0.04730
C2631       C  0.52346051  0.07436278  0.39260465    -0.21080
C2632       C  0.52848488  0.10424395  0.38780352    -0.07640
C2633       C  0.55882907  0.12942387  0.38164623     0.13230
C2634       C  0.58340803  0.12400304  0.38108979    -0.21130
C2635       C  0.57851229  0.09404401  0.38604065    -0.07650
C2636       C  0.54785040  0.06892024  0.39230376     0.13210
C2637       C  0.54017951  0.03620079  0.39926767    -0.24480
H2638       H  0.50015570  0.05511597  0.39745998     0.14500
H2639       H  0.60676044  0.14366849  0.37891088     0.14530
C2640       C  0.56569345  0.16226982  0.37752569    -0.24430
H2641       H  0.51484066  0.01929202  0.40073446     0.04740
H2642       H  0.55039344  0.03555410  0.42347039     0.07970
H2643       H  0.54917558  0.02832289  0.37883120     0.07970
H2644       H  0.55793673  0.16955360  0.39995900     0.07950
H2645       H  0.55353168  0.16333814  0.35507588     0.07950
H2646       H  0.59082421  0.17928548  0.37428969     0.04730
C2647       C  0.80017749  0.10756940  0.33960174    -0.21080
C2648       C  0.78198499  0.09796446  0.36850868    -0.07640
C2649       C  0.79324608  0.09025169  0.39701077     0.13230
C2650       C  0.82066709  0.08987085  0.39462565    -0.21130
C2651       C  0.83743122  0.09691008  0.36479716    -0.07650
C2652       C  0.82765031  0.10729337  0.33728368     0.13210
C2653       C  0.84557490  0.11801930  0.30511995    -0.24480
H2654       H  0.79237492  0.11449857  0.31810060     0.14500
H2655       H  0.82843525  0.08284150  0.41606984     0.14530
C2656       C  0.77647084  0.08144067  0.42996420    -0.24430
H2657       H  0.83539215  0.12715073  0.28751722     0.04740
H2658       H  0.84535338  0.09815568  0.29222590     0.07970
H2659       H  0.86972965  0.13721031  0.31042189     0.07970
H2660       H  0.75346020  0.05966076  0.42693505     0.07950
H2661       H  0.77386396  0.10084574  0.43948475     0.07950
H2662       H  0.78926292  0.07696090  0.44932106     0.04730
C2663       C  0.52381695  0.35270099  0.46711507    -0.21080
C2664       C  0.99177626  0.33916138  0.46742828    -0.07640
C2665       C  0.97564085  0.32914081  0.99822929     0.13230
C2666       C  0.99238740  0.33615976  0.02820687    -0.21130
C2667       C  0.52464011  0.35319613  0.02807030    -0.07650
C2668       C  0.54055796  0.36006830  0.49716830     0.13210
C2669       C  0.57530038  0.37580108  0.49572655    -0.24480
H2670       H  0.53596043  0.35961403  0.44353714     0.14500
H2671       H  0.98036514  0.33057191  0.05187892     0.14530
C2672       C  0.94076137  0.31151897  0.99990936    -0.24430
H2673       H  0.58348210  0.37732790  0.46967261     0.04740
H2674       H  0.58272440  0.36213830  0.51019683     0.07970
H2675       H  0.58673881  0.40002165  0.00600595     0.07970
H2676       H  0.93079782  0.29042717  0.48340830     0.07950
H2677       H  0.93190798  0.32659998  0.99237517     0.07950
H2678       H  0.93235233  0.30359873  0.02563022     0.04730
C2679       C  0.96655813  0.33724355  0.24408259    -0.21080
C2680       C  0.98155347  0.36002383  0.26945020    -0.07640
C2681       C  0.51292557  0.38369792  0.26545644     0.13230
C2682       C  0.52841030  0.38369702  0.23666298    -0.21130
C2683       C  0.51404958  0.36067508  0.21152707    -0.07650
C2684       C  0.98222386  0.33750585  0.21484885     0.13210
C2685       C  0.96448072  0.31318386  0.18800136    -0.24480
H2686       H  0.94243708  0.31916964  0.24720454     0.14500
H2687       H  0.55229217  0.40212003  0.23387545     0.14530
C2688       C  0.53105785  0.40823372  0.29199532    -0.24430
H2689       H  0.93996937  0.29702799  0.19508887     0.04740
H2690       H  0.97509199  0.29893095  0.18352354     0.07970
H2691       H  0.96450365  0.32478857  0.16460164     0.07970
H2692       H  0.53204703  0.39675825  0.31490679     0.07950
H2693       H  0.52031263  0.42219699  0.29707908     0.07950
H2694       H  0.55531847  0.42484077  0.28441430     0.04730
C2695       C  0.93487785  0.46537123  0.34606435    -0.21080
C2696       C  0.92567041  0.44259381  0.37067983    -0.07640
C2697       C  0.91757205  0.44850840  0.40270563     0.13230
C2698       C  0.91743832  0.47608557  0.40858350    -0.21130
C2699       C  0.92481144  0.49770354  0.38325400    -0.07650
C2700       C  0.93457536  0.49276452  0.35194574     0.13210
C2701       C  0.94504489  0.51643650  0.32472526    -0.24480
H2702       H  0.94176747  0.46149115  0.32170860     0.14500
H2703       H  0.91048081  0.48028875  0.43275381     0.14530
C2704       C  0.90930964  0.42629092  0.43099656    -0.24430
H2705       H  0.95368846  0.50973310  0.30259222     0.04740
H2706       H  0.96395723  0.03961481  0.33411771     0.07970
H2707       H  0.92523531  0.51809853  0.31646025     0.07970
H2708       H  0.92834175  0.42192122  0.43509875     0.07950
H2709       H  0.88738567  0.40413822  0.42501030     0.07950
H2710       H  0.90576615  0.43576397  0.45471337     0.04730
C2711       C  0.90843138  0.18917251  0.40118470    -0.21080
C2712       C  0.92760216  0.18841825  0.37625107    -0.07640
C2713       C  0.94572293  0.21503799  0.35656532     0.13230
C2714       C  0.94347603  0.24120248  0.36147611    -0.21130
C2715       C  0.92412955  0.24216255  0.38586783    -0.07650
C2716       C  0.90647131  0.21594678  0.40628983     0.13210
C2717       C  0.88511850  0.21576057  0.43256570    -0.24480
H2718       H  0.89484540  0.16873668  0.41640465     0.14500
H2719       H  0.95779546  0.26161504  0.34646224     0.14530
C2720       C  0.96897389  0.21714659  0.33151404    -0.24430
H2721       H  0.87210053  0.19282178  0.44512666     0.04740
H2722       H  0.86812218  0.22043089  0.42094127     0.07970
H2723       H  0.89866719  0.23395769  0.45194497     0.07970
H2724       H  0.95736705  0.19896267  0.31176738     0.07950
H2725       H  0.48680454  0.21469478  0.34449237     0.07950
H2726       H  0.48122235  0.24006959  0.31884818     0.04730
C2727       C  0.56621583  0.48547022  0.35873465    -0.21080
C2728       C  0.59242139  0.48509565  0.36913331    -0.07640
C2729       C  0.58790851  0.45598021  0.37958096     0.13230
C2730       C  0.55753179  0.42981257  0.38291358    -0.21130
C2731       C  0.53124872  0.43114127  0.37493271    -0.07650
C2732       C  0.53602740  0.45948178  0.36192926     0.13210
C2733       C  0.50968813  0.46248616  0.34980573    -0.24480
H2734       H  0.56933937  0.00658748  0.34805549     0.14500
H2735       H  0.55438346  0.40781269  0.39105561     0.14530
C2736       C  0.61410310  0.45071745  0.38586609    -0.24430
H2737       H  0.51769452  0.48595186  0.33955247     0.04740
H2738       H  0.99383253  0.45880788  0.37074211     0.07970
H2739       H  0.99738030  0.44525811  0.32934392     0.07970
H2740       H  0.61620933  0.44811641  0.41303489     0.07950
H2741       H  0.63650179  0.46940315  0.37597989     0.07950
H2742       H  0.60923635  0.42890985  0.37270164     0.04730
C2743       C  0.80403880  0.24375029  0.39353161    -0.21080
C2744       C  0.83016695  0.24675415  0.37800798    -0.07640
C2745       C  0.82759447  0.22072371  0.36062287     0.13230
C2746       C  0.79911855  0.19211065  0.36037202    -0.21130
C2747       C  0.77303992  0.18899914  0.37652375    -0.07650
C2748       C  0.77553019  0.21538376  0.39302465     0.13210
C2749       C  0.74800376  0.21450209  0.40853031    -0.24480
H2750       H  0.80574792  0.26414560  0.40522502     0.14500
H2751       H  0.79714471  0.17215487  0.34699784     0.14530
C2752       C  0.85402620  0.22220864  0.34184974    -0.24430
H2753       H  0.75405455  0.23770407  0.41897779     0.04740
H2754       H  0.73891087  0.19766758  0.42930873     0.07970
H2755       H  0.72976061  0.20760683  0.38926338     0.07970
H2756       H  0.85983486  0.20572845  0.35288269     0.07950
H2757       H  0.87493358  0.24593108  0.34218555     0.07950
H2758       H  0.84718511  0.21533451  0.31532711     0.04730
C2759       C  0.83062603  0.33930586  0.51115591    -0.21080
C2760       C  0.85310882  0.36358278  0.03167718    -0.07640
C2761       C  0.88377484  0.38171253  0.02013390     0.13230
C2762       C  0.89135315  0.37471575  0.98912943    -0.21130
C2763       C  0.86903827  0.35122136  0.46778291    -0.07650
C2764       C  0.83824638  0.33290106  0.47924186     0.13210
C2765       C  0.81381602  0.30599165  0.45877067    -0.24480
H2766       H  0.80686188  0.32616073  0.51955801     0.14500
H2767       H  0.91524359  0.38835965  0.98128781     0.14530
C2768       C  0.90879834  0.40913304  0.04000366    -0.24430
H2769       H  0.79102502  0.29418350  0.47141575     0.04740
H2770       H  0.82080419  0.28859582  0.45513135     0.07970
H2771       H  0.81106440  0.31435076  0.43428286     0.07970
H2772       H  0.91188868  0.40094322  0.06421066     0.07950
H2773       H  0.90276525  0.42721190  0.04419077     0.07950
H2774       H  0.93145268  0.42056693  0.02708653     0.04730
C2775       C  0.86873925  0.33665992  0.25368547    -0.21080
C2776       C  0.86363453  0.35063744  0.28159049    -0.07640
C2777       C  0.85051220  0.36916786  0.27667308     0.13230
C2778       C  0.84394665  0.37412408  0.24402971    -0.21130
C2779       C  0.85031903  0.36131767  0.21586113    -0.07650
C2780       C  0.86220989  0.34163913  0.22099422     0.13210
C2781       C  0.87036476  0.32772713  0.19221398    -0.24480
H2782       H  0.87911029  0.32274001  0.25743369     0.14500
H2783       H  0.83496713  0.38929575  0.24042615     0.14530
C2784       C  0.84540843  0.38562474  0.30549951    -0.24430
H2785       H  0.88008769  0.31363136  0.20074408     0.04740
H2786       H  0.88809345  0.34693183  0.17680693     0.07970
H2787       H  0.84943219  0.31215257  0.17693756     0.07970
H2788       H  0.86764860  0.40131265  0.31872995     0.07950
H2789       H  0.82852540  0.36813510  0.32312849     0.07950
H2790       H  0.83612986  0.40013990  0.29703582     0.04730
O2791       O  0.94146943  0.41365373  0.83757020    -0.80910
O2792       O  0.95715998  0.34816532  0.93942647    -0.80930
O2793       O  0.86605708  0.33391212  0.90920245    -0.80940
O2794       O  0.99766160  0.37623417  0.86403673    -0.80880
O2795       O  0.90836955  0.35205309  0.93666720    -0.81000
O2796       O  0.97570671  0.40211116  0.88149321    -0.80920
O2797       O  0.97834481  0.32823220  0.90882841    -0.80910
O2798       O  0.90951743  0.38825760  0.87869429    -0.80950
C2799       C  0.92531821  0.41355430  0.86174207     1.08780
C2800       C  0.97579030  0.33918301  0.93672254     1.08670
C2801       C  0.88102162  0.34532916  0.93626797     1.08800
C2802       C  0.99994320  0.40153413  0.87474137     1.08680
O2803       O  0.96678470  0.38046959  0.81522988    -0.80910
O2804       O  0.87145837  0.28681743  0.91027928    -0.80990
O2805       O  0.86091382  0.34397801  0.84124577    -0.80920
O2806       O  0.93010704  0.28692774  0.86182370    -0.80900
O2807       O  0.92248226  0.28319463  0.91584984    -0.80950
O2808       O  0.90394764  0.35404342  0.81613548    -0.80920
O2809       O  0.95136332  0.33127704  0.81558233    -0.80880
O2810       O  0.86953140  0.29548692  0.85662398    -0.80950
Co2811     Co  0.93870475  0.37673350  0.85250020     1.51530
Co2812     Co  0.91558900  0.31913049  0.92362892     1.51690
Co2813     Co  0.89117508  0.34091923  0.86641506     1.51570
Co2814     Co  0.96222134  0.33090840  0.86290901     1.51470
O2815       O  0.92883439  0.33886893  0.87858721    -1.42840
C2816       C  0.96511521  0.35703791  0.80098435     1.08710
C2817       C  0.85925728  0.27740356  0.88133582     1.08800
C2818       C  0.87637114  0.34939940  0.81455196     1.08740
C2819       C  0.92416824  0.27151857  0.88813777     1.08710
O2820       O  0.96273092  0.12404975  0.81298862    -0.80910
O2821       O  0.92997723  0.04017033  0.91611696    -0.80930
O2822       O  0.49722423  0.12524442  0.87383216    -0.80940
O2823       O  0.86996140  0.03879968  0.83617028    -0.80880
O2824       O  0.98283753  0.09368480  0.91535755    -0.81000
O2825       O  0.91199739  0.06888198  0.80834768    -0.80920
O2826       O  0.90727773  0.03115889  0.86880049    -0.80910
O2827       O  0.98420487  0.16440441  0.84626696    -0.80950
C2828       C  0.98113215  0.15274793  0.81713694     1.08780
C2829       C  0.92086072  0.02441190  0.88956499     1.08670
C2830       C  0.50173163  0.10816157  0.89236416     1.08800
C2831       C  0.88656518  0.04375150  0.81013328     1.08680
O2832       O  0.87608757  0.09255258  0.83530725    -0.80910
O2833       O  0.95429679  0.12778247  0.93946149    -0.80990
O2834       O  0.93687520  0.14995957  0.89594659    -0.80920
O2835       O  0.86131408  0.02724918  0.91013536    -0.80900
O2836       O  0.89613288  0.06987506  0.93707306    -0.80950
O2837       O  0.92798599  0.14955656  0.84252201    -0.80920
O2838       O  0.87323565  0.08466044  0.88841066    -0.80880
O2839       O  0.99582563  0.16715949  0.91721679    -0.80950
Co2840     Co  0.92060021  0.10782743  0.82754719     1.51530
Co2841     Co  0.93987320  0.08410607  0.92204581     1.51690
Co2842     Co  0.96622554  0.13600699  0.88624409     1.51570
Co2843     Co  0.89190232  0.05864477  0.88072078     1.51470
O2844       O  0.93260440  0.09450665  0.87026524    -1.42840
C2845       C  0.86391050  0.09187445  0.86296435     1.08710
C2846       C  0.98228806  0.15094425  0.94286982     1.08800
C2847       C  0.92975888  0.16054454  0.87166492     1.08740
C2848       C  0.87276790  0.04163518  0.93801937     1.08710
O2849       O  0.52410898  0.39279815  0.61852705    -0.80910
O2850       O  0.65198661  0.48135369  0.59280124    -0.80930
O2851       O  0.59097862  0.47547007  0.67432588    -0.80940
O2852       O  0.56031086  0.39769588  0.55838843    -0.80880
O2853       O  0.61463783  0.48811509  0.62803441    -0.81000
O2854       O  0.53777018  0.35496341  0.58645520    -0.80920
O2855       O  0.61090687  0.45318083  0.56151291    -0.80910
O2856       O  0.53753110  0.42316932  0.66238966    -0.80950
C2857       C  0.51958182  0.40987859  0.63787196     1.08780
C2858       C  0.63625059  0.47827668  0.56654776     1.08670
C2859       C  0.60195270  0.49444071  0.65091103     1.08800
C2860       C  0.54132558  0.36890688  0.55918354     1.08680
O2861       O  0.58242272  0.36511624  0.63756863    -0.80910
O2862       O  0.65866701  0.48642746  0.66688357    -0.80990
O2863       O  0.56223487  0.38498552  0.68174818    -0.80920
O2864       O  0.64585255  0.42799206  0.58418152    -0.80900
O2865       O  0.64734782  0.43155785  0.63801749    -0.80950
O2866       O  0.52223645  0.34670405  0.65573731    -0.80920
O2867       O  0.59418503  0.36980637  0.58476830    -0.80880
O2868       O  0.62229457  0.44304721  0.69103358    -0.80950
Co2869     Co  0.55405641  0.38041898  0.62951641     1.51530
Co2870     Co  0.62874081  0.45823738  0.63482155     1.51690
Co2871     Co  0.57936839  0.43065294  0.67242623     1.51570
Co2872     Co  0.60179345  0.41288657  0.57525841     1.51470
O2873       O  0.58867699  0.42357638  0.61963523    -1.42840
C2874       C  0.59091760  0.35628711  0.61235558     1.08710
C2875       C  0.64706185  0.47071552  0.69352206     1.08800
C2876       C  0.53337458  0.36332187  0.68224725     1.08740
C2877       C  0.65790905  0.42727454  0.61122419     1.08710
O2878       O  0.68846251  0.15167202  0.84469145    -0.80910
O2879       O  0.64547478  0.01891705  0.88843321    -0.80930
O2880       O  0.67683309  0.05994370  0.81142134    -0.80940
O2881       O  0.60434098  0.06991612  0.90754887    -0.80880
O2882       O  0.69385379  0.03801818  0.84506511    -0.81000
O2883       O  0.63171883  0.10853004  0.87300191    -0.80920
O2884       O  0.62312724  0.04083606  0.86374048    -0.80910
O2885       O  0.67371348  0.11129721  0.81243080    -0.80950
C2886       C  0.67921533  0.13858728  0.81658044     1.08780
C2887       C  0.62236811  0.01623516  0.87261449     1.08670
C2888       C  0.68335303  0.03945572  0.81671137     1.08800
C2889       C  0.60587721  0.09048619  0.88870678     1.08680
O2890       O  0.67578079  0.15775208  0.90732642    -0.80910
O2891       O  0.73451175  0.08709151  0.89283267    -0.80990
O2892       O  0.73564734  0.14652552  0.84317364    -0.80920
O2893       O  0.63978301  0.05132286  0.93257169    -0.80900
O2894       O  0.68817498  0.06682008  0.93733758    -0.80950
O2895       O  0.72388653  0.14837486  0.89615014    -0.80920
O2896       O  0.65965336  0.11286988  0.93219026    -0.80880
O2897       O  0.73913660  0.09463574  0.83895721    -0.80950
Co2898     Co  0.67929598  0.12626235  0.88558641     1.51530
Co2899     Co  0.69034719  0.05524036  0.89040027     1.51690
Co2900     Co  0.70448288  0.10218373  0.82865250     1.51570
Co2901     Co  0.64313271  0.07754195  0.89449698     1.51470
O2902       O  0.68285282  0.08904995  0.87309321    -1.42840
C2903       C  0.66447854  0.14104716  0.93273458     1.08710
C2904       C  0.75064740  0.09387426  0.86691773     1.08800
C2905       C  0.74292057  0.15934952  0.87217089     1.08740
C2906       C  0.66164577  0.05373761  0.94984765     1.08710
O2907       O  0.53319129  0.12011810  0.67394044    -0.80910
O2908       O  0.62089268  0.20224392  0.55178519    -0.80930
O2909       O  0.52842928  0.17379814  0.59853115    -0.80940
O2910       O  0.59377681  0.11896962  0.62469806    -0.80880
O2911       O  0.56242932  0.16496817  0.57328952    -0.81000
O2912       O  0.58449916  0.11510857  0.67816959    -0.80920
O2913       O  0.62554517  0.16650689  0.57798013    -0.80910
O2914       O  0.53624329  0.12726169  0.62044221    -0.80950
C2915       C  0.52206082  0.11025498  0.64478573     1.08780
C2916       C  0.62601815  0.18000610  0.55095245     1.08670
C2917       C  0.53849070  0.16779759  0.57205623     1.08800
C2918       C  0.58761736  0.10341339  0.65115081     1.08680
O2919       O  0.62001515  0.17885389  0.70560994    -0.80910
O2920       O  0.59571745  0.22954693  0.59068956    -0.80990
O2921       O  0.53204466  0.16970233  0.66954786    -0.80920
O2922       O  0.66440909  0.20646855  0.63209443    -0.80900
O2923       O  0.64315622  0.23101890  0.61271058    -0.80950
O2924       O  0.57173116  0.18477782  0.70135302    -0.80920
O2925       O  0.63962616  0.15849130  0.67361173    -0.80880
O2926       O  0.57520507  0.21876078  0.63884284    -0.80950
Co2927     Co  0.57838037  0.15152251  0.68690574     1.51530
Co2928     Co  0.60415616  0.19526664  0.59601492     1.51690
Co2929     Co  0.55737796  0.17346462  0.62835895     1.51570
Co2930     Co  0.62717370  0.16340068  0.62816695     1.51470
O2931       O  0.59506462  0.17601419  0.64320256    -1.42840
C2932       C  0.63939034  0.17084808  0.70111559     1.08710
C2933       C  0.58668435  0.23796456  0.61563680     1.08800
C2934       C  0.54554922  0.18079196  0.69754709     1.08740
C2935       C  0.66591818  0.23169405  0.62549338     1.08710
O2936       O  0.91141249  0.43690542  0.65878664    -0.80910
O2937       O  0.84000554  0.44981300  0.55362390    -0.80930
O2938       O  0.83317753  0.36150052  0.58731683    -0.80940
O2939       O  0.87697684  0.49397985  0.63298682    -0.80880
O2940       O  0.84552865  0.40120703  0.55600959    -0.81000
O2941       O  0.89964756  0.46970995  0.61327392    -0.80920
O2942       O  0.82799825  0.47599934  0.58850902    -0.80910
O2943       O  0.88637185  0.40418663  0.61748202    -0.80950
C2944       C  0.91065277  0.41862904  0.63622286     1.08780
C2945       C  0.83583615  0.47191600  0.55952450     1.08670
C2946       C  0.84328778  0.37547581  0.55987212     1.08800
C2947       C  0.90124160  0.49501013  0.62178055     1.08680
O2948       O  0.87950414  0.46238661  0.67987427    -0.80910
O2949       O  0.78408362  0.36409927  0.58715025    -0.80990
O2950       O  0.84367636  0.35681898  0.65551591    -0.80920
O2951       O  0.78605919  0.43002988  0.63605774    -0.80900
O2952       O  0.77924093  0.41615510  0.58303570    -0.80950
O2953       O  0.85270196  0.40038662  0.67982461    -0.80920
O2954       O  0.83141295  0.44833149  0.68097068    -0.80880
O2955       O  0.79596265  0.36531113  0.64034758    -0.80950
Co2956     Co  0.87473677  0.43368755  0.64273367     1.51530
Co2957     Co  0.81392190  0.40870068  0.57257240     1.51690
Co2958     Co  0.84018932  0.38700409  0.62992669     1.51570
Co2959     Co  0.83089829  0.45958391  0.63386412     1.51470
O2960       O  0.83692267  0.42435867  0.61686152    -1.42840
C2961       C  0.85720912  0.46108919  0.69531293     1.08710
C2962       C  0.77737171  0.35235367  0.61621608     1.08800
C2963       C  0.84868094  0.37286090  0.68217110     1.08740
C2964       C  0.76911781  0.42055320  0.61042611     1.08710
C2965       C  0.93524395  0.04855201  0.64717820    -0.21080
C2966       C  0.93235328  0.02523016  0.62466849    -0.07640
C2967       C  0.95968734  0.03049120  0.60850761     0.13230
C2968       C  0.98850140  0.05816900  0.61568599    -0.21130
C2969       C  0.99126120  0.08069989  0.63912097    -0.07650
C2970       C  0.96401411  0.07589663  0.65452319     0.13210
C2971       C  0.96487546  0.10029225  0.67765097    -0.24480
H2972       H  0.91483387  0.04521490  0.65977061     0.14500
H2973       H  0.50917338  0.06213790  0.60312222     0.14530
C2974       C  0.95888144  0.00744777  0.58328505    -0.24430
H2975       H  0.94154873  0.09317773  0.68717557     0.04740
H2976       H  0.97376174  0.12238391  0.66388834     0.07970
H2977       H  0.98002692  0.10437271  0.69948502     0.07970
H2978       H  0.94202982  0.50305183  0.56311729     0.07950
H2979       H  0.95235806  0.48514447  0.59552791     0.07950
H2980       H  0.98181993  0.01633883  0.57157360     0.04730
C2981       C  0.72256479  0.26451362  0.62006863    -0.21080
C2982       C  0.69498220  0.26238474  0.62972709    -0.07640
C2983       C  0.69524220  0.29029003  0.63742659     0.13230
C2984       C  0.72241642  0.31943711  0.63260213    -0.21130
C2985       C  0.74939616  0.32137498  0.62112412    -0.07650
C2986       C  0.74971673  0.29364801  0.61552681     0.13210
C2987       C  0.77839296  0.29460705  0.60378363    -0.24480
H2988       H  0.72245131  0.24329196  0.61410542     0.14500
H2989       H  0.72252477  0.34078121  0.63778652     0.14530
C2990       C  0.66762848  0.29036624  0.65131647    -0.24430
H2991       H  0.77461710  0.27078093  0.60093673     0.04740
H2992       H  0.79738847  0.30782459  0.62216334     0.07970
H2993       H  0.78525727  0.30593759  0.57910652     0.07970
H2994       H  0.64816165  0.26671160  0.65755332     0.07950
H2995       H  0.65956509  0.30105276  0.63308533     0.07950
H2996       H  0.67440355  0.30451068  0.67483206     0.04730
C2997       C  0.65297039  0.18039557  0.76121401    -0.21080
C2998       C  0.65771182  0.17079077  0.72970376    -0.07640
C2999       C  0.67603568  0.15705218  0.72747044     0.13230
C3000       C  0.68480183  0.14910183  0.75684554    -0.21130
C3001       C  0.67613338  0.15472934  0.78809320    -0.07650
C3002       C  0.66205576  0.17252923  0.79054509     0.13210
C3003       C  0.65439364  0.18104839  0.82377625    -0.24480
H3004       H  0.64015627  0.19213303  0.76315120     0.14500
H3005       H  0.69704175  0.13672587  0.75538722     0.14530
C3006       C  0.68545329  0.14918793  0.69472899    -0.24430
H3007       H  0.64195023  0.19369037  0.82111084     0.04740
H3008       H  0.67594171  0.19626538  0.83830441     0.07970
H3009       H  0.63942319  0.15934360  0.83756019     0.07970
H3010       H  0.69688602  0.17019579  0.67879375     0.07950
H3011       H  0.66500072  0.12965791  0.68168373     0.07950
H3012       H  0.70213003  0.14146611  0.69845376     0.04730
C3013       C  0.64427263  0.13298857  0.48985840    -0.21080
C3014       C  0.65579016  0.15277596  0.96249989    -0.07640
C3015       C  0.65566479  0.18111569  0.96342818     0.13230
C3016       C  0.64499739  0.18901445  0.49218424    -0.21130
C3017       C  0.63406098  0.16932866  0.51981313    -0.07650
C3018       C  0.63315643  0.14044506  0.51810297     0.13210
C3019       C  0.62045540  0.11666701  0.54553754    -0.24480
H3020       H  0.64369696  0.11107363  0.48920987     0.14500
H3021       H  0.64563589  0.21095117  0.49325328     0.14530
C3022       C  0.66625321  0.20316969  0.93444920    -0.24430
H3023       H  0.61874996  0.09440204  0.53798280     0.04740
H3024       H  0.59679116  0.11082282  0.55227605     0.07970
H3025       H  0.63619564  0.12598702  0.56750727     0.07970
H3026       H  0.65177331  0.19099268  0.91206976     0.07950
H3027       H  0.69090970  0.21199278  0.92907558     0.07950
H3028       H  0.66424282  0.22383141  0.93979690     0.04730
C3029       C  0.62021699  0.49670679  0.01916832    -0.21080
C3030       C  0.64463044  0.50231963  0.54061011    -0.07640
C3031       C  0.67462480  0.02778662  0.53408512     0.13230
C3032       C  0.67952143  0.04540940  0.50499464    -0.21130
C3033       C  0.65514556  0.03773799  0.98231258    -0.07650
C3034       C  0.62497055  0.51281212  0.98982569     0.13210
C3035       C  0.59746345  0.50101560  0.96649538    -0.24480
H3036       H  0.59672713  0.47822309  0.02453886     0.14500
H3037       H  0.70262340  0.06459034  0.49942032     0.14530
C3038       C  0.70134402  0.03595351  0.55697891    -0.24430
H3039       H  0.57628886  0.48014693  0.97620574     0.04740
H3040       H  0.60253487  0.49381436  0.94217382     0.07970
H3041       H  0.59178502  0.51935044  0.96300203     0.07970
H3042       H  0.70480706  0.01590150  0.55832165     0.07950
H3043       H  0.69656873  0.04162391  0.58234559     0.07950
H3044       H  0.72316675  0.05658256  0.54807539     0.04730
C3045       C  0.65759550  0.98759514  0.78795972    -0.21080
C3046       C  0.68067115  0.01929617  0.78802549    -0.07640
C3047       C  0.69677610  0.03285580  0.75816786     0.13230
C3048       C  0.68703608  0.01536950  0.72819041    -0.21130
C3049       C  0.66129275  0.48458508  0.72704338    -0.07650
C3050       C  0.64773158  0.46993282  0.75793626     0.13210
C3051       C  0.62176375  0.43633597  0.75980745    -0.24480
H3052       H  0.64558271  0.97728378  0.81103595     0.14500
H3053       H  0.69851785  0.02663884  0.70522895     0.14530
C3054       C  0.72382643  0.06619940  0.75771180    -0.24430
H3055       H  0.61525691  0.42867613  0.78599294     0.04740
H3056       H  0.62869014  0.42087362  0.74771686     0.07970
H3057       H  0.60112836  0.43367878  0.74734675     0.07970
H3058       H  0.74184815  0.06903208  0.77558110     0.07950
H3059       H  0.71631906  0.08269251  0.76471392     0.07950
H3060       H  0.73446141  0.07272684  0.73258547     0.04730
C3061       C  0.58593405  0.02915276  0.67840787    -0.21080
C3062       C  0.59932531  0.02304534  0.65070009    -0.07640
C3063       C  0.60833410  0.04354691  0.62327841     0.13230
C3064       C  0.60316361  0.06850290  0.62410129    -0.21130
C3065       C  0.58929774  0.07431752  0.65140918    -0.07650
C3066       C  0.58033720  0.05393164  0.67896779     0.13210
C3067       C  0.56425887  0.05743910  0.70890831    -0.24480
H3068       H  0.57912467  0.01396678  0.69974262     0.14500
H3069       H  0.61054847  0.08395483  0.60315055     0.14530
C3070       C  0.62334049  0.03956276  0.59274299    -0.24430
H3071       H  0.55686870  0.03805582  0.72672621     0.04740
H3072       H  0.54323020  0.05718585  0.70072398     0.07970
H3073       H  0.58012767  0.07959385  0.72262528     0.07970
H3074       H  0.60709893  0.01663947  0.58063652     0.07950
H3075       H  0.64519547  0.04102381  0.59985316     0.07950
H3076       H  0.62919712  0.05792787  0.57401538     0.04730
C3077       C  0.60677949  0.29097026  0.59235888    -0.21080
C3078       C  0.58931071  0.26907376  0.61705117    -0.07640
C3079       C  0.57427351  0.27720919  0.64148063     0.13230
C3080       C  0.57645141  0.30627794  0.63980210    -0.21130
C3081       C  0.59292067  0.32765923  0.61432566    -0.07650
C3082       C  0.60878808  0.31996609  0.59060376     0.13210
C3083       C  0.62829962  0.34214916  0.56357169    -0.24480
H3084       H  0.61880996  0.28525878  0.57391872     0.14500
H3085       H  0.56418170  0.31184877  0.65807718     0.14530
C3086       C  0.55511730  0.25534137  0.66899528    -0.24430
H3087       H  0.64075063  0.33318957  0.54889724     0.04740
H3088       H  0.64585156  0.36487872  0.57503235     0.07970
H3089       H  0.61359300  0.34552525  0.54584461     0.07970
H3090       H  0.56988801  0.25056352  0.68511293     0.07950
H3091       H  0.53587910  0.23310978  0.65811050     0.07950
H3092       H  0.54467149  0.26547164  0.68527248     0.04730
C3093       C  0.72694193  0.42208030  0.58140734    -0.21080
C3094       C  0.73849333  0.41812816  0.61140651    -0.07640
C3095       C  0.72209160  0.41510318  0.64135100     0.13230
C3096       C  0.69561247  0.41747851  0.64038797    -0.21130
C3097       C  0.68511122  0.42321854  0.61050266    -0.07650
C3098       C  0.70110398  0.42523424  0.58039517     0.13210
C3099       C  0.69223424  0.43174429  0.54682753    -0.24480
H3100       H  0.73908845  0.42412899  0.55846732     0.14500
H3101       H  0.68333927  0.41536360  0.66332816     0.14530
C3102       C  0.73199499  0.40918077  0.67448192    -0.24430
H3103       H  0.70813782  0.43348402  0.52669385     0.04740
H3104       H  0.69324700  0.45440262  0.54788902     0.07970
H3105       H  0.66869940  0.41249382  0.53943046     0.07970
H3106       H  0.75440631  0.42988966  0.68250150     0.07950
H3107       H  0.73411433  0.38828437  0.67243214     0.07950
H3108       H  0.71500338  0.40480617  0.69443138     0.04730
C3109       C  0.96676711  0.44240303  0.63976980    -0.21080
C3110       C  0.93813482  0.41591852  0.63109717    -0.07640
C3111       C  0.93712413  0.38805791  0.62080889     0.13230
C3112       C  0.96451619  0.38743749  0.62160461    -0.21130
C3113       C  0.99253847  0.41330702  0.63303882    -0.07650
C3114       C  0.99375971  0.44148427  0.64093560     0.13210
C3115       C  0.52347593  0.47102161  0.65002773    -0.24480
H3116       H  0.96797503  0.46403894  0.64658133     0.14500
H3117       H  0.96359314  0.36592969  0.61485420     0.14530
C3118       C  0.90815735  0.35801519  0.61006534    -0.24430
H3119       H  0.52051984  0.49138659  0.65278422     0.04740
H3120       H  0.54056357  0.47634433  0.62995472     0.07970
H3121       H  0.53217478  0.46820961  0.67424217     0.07970
H3122       H  0.90540027  0.33842845  0.62531797     0.07950
H3123       H  0.88670415  0.35829817  0.61261009     0.07950
H3124       H  0.91035441  0.35271240  0.58353806     0.04730
C3125       C  0.98881602  0.13060913  0.49564251    -0.21080
C3126       C  0.99752902  0.15687708  0.97586832    -0.07640
C3127       C  0.51989531  0.18696594  0.98822518     0.13230
C3128       C  0.53228149  0.18988011  0.52037006    -0.21130
C3129       C  0.52292094  0.16348591  0.54002478    -0.07650
C3130       C  0.50101409  0.13354355  0.52765987     0.13210
C3131       C  0.49071814  0.10477532  0.54812217    -0.24480
H3132       H  0.97295308  0.10747489  0.48557291     0.14500
H3133       H  0.54965697  0.21279662  0.53009728     0.14530
C3134       C  0.53054676  0.21590683  0.96801864    -0.24430
H3135       H  0.97312463  0.08310360  0.53472601     0.04740
H3136       H  0.98037054  0.10665139  0.57184638     0.07970
H3137       H  0.51085327  0.10253420  0.55386077     0.07970
H3138       H  0.51041299  0.21780595  0.96117246     0.07950
H3139       H  0.54223801  0.21481307  0.94503250     0.07950
H3140       H  0.54728460  0.23747624  0.98217833     0.04730
C3141       C  0.52943447  0.18967245  0.78818030    -0.21080
C3142       C  0.99728242  0.17098523  0.78743308    -0.07640
C3143       C  0.98145698  0.16431875  0.75634656     0.13230
C3144       C  0.99833412  0.17160501  0.72663127    -0.21130
C3145       C  0.53038489  0.18494687  0.72734364    -0.07650
C3146       C  0.54640035  0.19702446  0.75845644     0.13210
C3147       C  0.58124178  0.21622068  0.76127581    -0.24480
H3148       H  0.54138309  0.19579446  0.81206909     0.14920
H3149       H  0.98613991  0.16447854  0.70294622     0.14530
C3150       C  0.94669235  0.14863506  0.75416166    -0.24430
H3151       H  0.58893075  0.22703921  0.78655637     0.04740
H3152       H  0.59077744  0.23547883  0.74301762     0.07970
H3153       H  0.59114494  0.20129788  0.75711384     0.07970
H3154       H  0.93913333  0.16263851  0.76824127     0.07950
H3155       H  0.93489097  0.12472034  0.76425670     0.07950
H3156       H  0.93869069  0.14649336  0.72792201     0.04730
C3157       C  0.83289299  0.49697722  0.97166801    -0.21080
C3158       C  0.85999446  0.02673597  0.97111545    -0.07640
C3159       C  0.87589656  0.04014956  0.50203086     0.13230
C3160       C  0.86535674  0.02282501  0.53152620    -0.21130
C3161       C  0.83993022  0.49227845  0.53117631    -0.07650
C3162       C  0.82286977  0.47954697  0.00113316     0.13210
C3163       C  0.79421749  0.44726547  0.99996626    -0.24480
H3164       H  0.82019422  0.48660976  0.94862276     0.14500
H3165       H  0.87853491  0.03222689  0.55451572     0.14530
C3166       C  0.90538335  0.07166699  0.50433763    -0.24430
H3167       H  0.78322550  0.44123535  0.97481574     0.04740
H3168       H  0.77717271  0.44626749  0.51803103     0.07970
H3169       H  0.79990671  0.42939021  0.00627913     0.07970
H3170       H  0.90136610  0.09019750  0.49578585     0.07950
H3171       H  0.92312565  0.07099131  0.98886166     0.07950
H3172       H  0.91463087  0.07792935  0.53025900     0.04730
C3173       C  0.84910772  0.99380052  0.77928141    -0.21080
C3174       C  0.87863446  0.02112717  0.78176446    -0.07640
C3175       C  0.90088933  0.02687142  0.75633283     0.13230
C3176       C  0.89288838  0.00543570  0.73023833    -0.21130
C3177       C  0.86325515  0.47912571  0.72684568    -0.07650
C3178       C  0.84094037  0.97292155  0.75173158     0.13210
C3179       C  0.80884800  0.44433587  0.74966303    -0.24480
H3180       H  0.83217984  0.98914910  0.79844149     0.14500
H3181       H  0.90987487  0.51029443  0.71105087     0.14530
C3182       C  0.93326526  0.05571724  0.75476030    -0.24430
H3183       H  0.79502589  0.94230722  0.77208467     0.04740
H3184       H  0.81019601  0.42297687  0.74774191     0.07970
H3185       H  0.79646026  0.44560857  0.72755741     0.07970
H3186       H  0.94688256  0.05827064  0.77743803     0.07950
H3187       H  0.93191750  0.07685890  0.75138962     0.07950
H3188       H  0.94678411  0.05482617  0.73338650     0.04730
C3189       C  0.52346062  0.07436293  0.89260401    -0.21080
C3190       C  0.52848510  0.10424422  0.88780348    -0.07640
C3191       C  0.55882937  0.12942422  0.88164674     0.13230
C3192       C  0.58340831  0.12400336  0.88109025    -0.21130
C3193       C  0.57851245  0.09404419  0.88604048    -0.07650
C3194       C  0.54785047  0.06892034  0.89230301     0.13210
C3195       C  0.54017946  0.03620071  0.89926607    -0.24480
H3196       H  0.50015574  0.05511605  0.89745892     0.14500
H3197       H  0.60676077  0.14366884  0.87891181     0.14530
C3198       C  0.56569382  0.16227026  0.87752685    -0.24430
H3199       H  0.51484059  0.01929193  0.90073245     0.04740
H3200       H  0.55039313  0.03555345  0.92346873     0.07970
H3201       H  0.54917574  0.02832330  0.87882935     0.07970
H3202       H  0.55793690  0.16955366  0.89996028     0.07950
H3203       H  0.55353228  0.16333899  0.85507705     0.07950
H3204       H  0.59082462  0.17928597  0.87429120     0.04730
C3205       C  0.80017764  0.10756952  0.83960187    -0.21080
C3206       C  0.78198502  0.09796437  0.86850872    -0.07640
C3207       C  0.79324600  0.09025137  0.89701074     0.13230
C3208       C  0.82066702  0.08987056  0.89462563    -0.21130
C3209       C  0.83743128  0.09691003  0.86479721    -0.07650
C3210       C  0.82765048  0.10729353  0.83728382     0.13210
C3211       C  0.84557523  0.11801973  0.80512021    -0.24480
H3212       H  0.79237516  0.11449886  0.81810079     0.14500
H3213       H  0.82843509  0.08284104  0.91606975     0.14530
C3214       C  0.77647060  0.08144005  0.92996408    -0.24430
H3215       H  0.83539255  0.12715132  0.78751756     0.04740
H3216       H  0.84535377  0.09815622  0.79222597     0.07970
H3217       H  0.86972995  0.13721070  0.81042234     0.07970
H3218       H  0.75345996  0.05966019  0.92693469     0.07950
H3219       H  0.77386372  0.10084507  0.93948484     0.07950
H3220       H  0.78926257  0.07696008  0.94932088     0.04730
C3221       C  0.52381696  0.35270094  0.96711505    -0.21080
C3222       C  0.99177628  0.33916136  0.96742823    -0.07640
C3223       C  0.97564085  0.32914084  0.49822935     0.13230
C3224       C  0.99238741  0.33615979  0.52820692    -0.21130
C3225       C  0.52464013  0.35319617  0.52807033    -0.07650
C3226       C  0.54055796  0.36006824  0.99716829     0.13210
C3227       C  0.57530037  0.37580100  0.99572655    -0.24480
H3228       H  0.53596045  0.35961397  0.94353712     0.14500
H3229       H  0.98036517  0.33057194  0.55187897     0.14530
C3230       C  0.94076137  0.31151898  0.49990944    -0.24430
H3231       H  0.58348211  0.37732781  0.96967262     0.04740
H3232       H  0.58272437  0.36213820  0.01019684     0.07970
H3233       H  0.58673880  0.40002174  0.50600594     0.07970
H3234       H  0.93079782  0.29042715  0.98340823     0.07950
H3235       H  0.93190796  0.32659998  0.49237526     0.07950
H3236       H  0.93235234  0.30359875  0.52563030     0.04730
C3237       C  0.96655821  0.33724346  0.74408267    -0.21080
C3238       C  0.98155347  0.36002389  0.76945016    -0.07640
C3239       C  0.51292553  0.38369804  0.76545635     0.13230
C3240       C  0.52841028  0.38369715  0.73666290    -0.21130
C3241       C  0.51404960  0.36067512  0.71152707    -0.07650
C3242       C  0.98222395  0.33750575  0.71484895     0.13210
C3243       C  0.96448090  0.31318355  0.68800161    -0.24480
H3244       H  0.94243721  0.31916943  0.74720472     0.14500
H3245       H  0.55229212  0.40212024  0.73387531     0.14530
C3246       C  0.53105778  0.40823393  0.79199517    -0.24430
H3247       H  0.93996959  0.29702755  0.69508921     0.04740
H3248       H  0.97509236  0.29893081  0.68352390     0.07970
H3249       H  0.96450365  0.32478806  0.66460181     0.07970
H3250       H  0.53204700  0.39675855  0.81490669     0.07950
H3251       H  0.52031249  0.42219715  0.79707885     0.07950
H3252       H  0.55531839  0.42484101  0.78441413     0.04730
C3253       C  0.93487778  0.46537119  0.84606433    -0.21080
C3254       C  0.92567037  0.44259379  0.87067982    -0.07640
C3255       C  0.91757204  0.44850839  0.90270563     0.13230
C3256       C  0.91743829  0.47608555  0.90858349    -0.21130
C3257       C  0.92481138  0.49770350  0.88325397    -0.07650
C3258       C  0.93457527  0.49276448  0.85194571     0.13210
C3259       C  0.94504477  0.51643644  0.82472521    -0.24480
H3260       H  0.94176738  0.46149110  0.82170857     0.14500
H3261       H  0.91048079  0.48028875  0.93275381     0.14530
C3262       C  0.90930967  0.42629094  0.93099657    -0.24430
H3263       H  0.95368833  0.50973303  0.80259217     0.04740
H3264       H  0.96395742  0.03961487  0.83411769     0.07970
H3265       H  0.92523518  0.51809845  0.81646022     0.07970
H3266       H  0.92834180  0.42192126  0.93509873     0.07950
H3267       H  0.88738571  0.40413822  0.92501034     0.07950
H3268       H  0.90576620  0.43576400  0.95471338     0.04730
C3269       C  0.90843143  0.18917254  0.90118465    -0.21080
C3270       C  0.92760216  0.18841826  0.87625098    -0.07640
C3271       C  0.94572288  0.21503798  0.85656519     0.13230
C3272       C  0.94347600  0.24120247  0.86147599    -0.21130
C3273       C  0.92412956  0.24216256  0.88586776    -0.07650
C3274       C  0.90647135  0.21594681  0.90628979     0.13210
C3275       C  0.88511858  0.21576062  0.93256571    -0.24480
H3276       H  0.89484548  0.16873672  0.91640464     0.14500
H3277       H  0.95779539  0.26161501  0.84646209     0.14530
C3278       C  0.96897380  0.21714657  0.83151385    -0.24430
H3279       H  0.87210063  0.19282183  0.94512668     0.04740
H3280       H  0.86812225  0.22043093  0.92094130     0.07970
H3281       H  0.89866731  0.23395775  0.95194495     0.07970
H3282       H  0.95736693  0.19896263  0.81176723     0.07950
H3283       H  0.48680446  0.21469479  0.84449207     0.07950
H3284       H  0.48122217  0.24006954  0.81884790     0.04730
C3285       C  0.56621584  0.48547022  0.85873462    -0.21080
C3286       C  0.59242140  0.48509567  0.86913335    -0.07640
C3287       C  0.58790850  0.45598024  0.87958107     0.13230
C3288       C  0.55753179  0.42981260  0.88291366    -0.21130
C3289       C  0.53124873  0.43114129  0.87493272    -0.07650
C3290       C  0.53602741  0.45948178  0.86192923     0.13210
C3291       C  0.50968814  0.46248616  0.84980567    -0.24480
H3292       H  0.56933951  0.00658726  0.84805494     0.14500
H3293       H  0.55438345  0.40781272  0.89105573     0.14530
C3294       C  0.61410310  0.45071749  0.88586630    -0.24430
H3295       H  0.51769454  0.48595185  0.83955237     0.04740
H3296       H  0.99383256  0.45880792  0.87074209     0.07970
H3297       H  0.99738028  0.44525810  0.82934393     0.07970
H3298       H  0.61620933  0.44811655  0.91303512     0.07950
H3299       H  0.63650178  0.46940315  0.87598004     0.07950
H3300       H  0.60923634  0.42890985  0.87270196     0.04730
C3301       C  0.80403888  0.24375022  0.89353171    -0.21080
C3302       C  0.83016702  0.24675413  0.87800802    -0.07640
C3303       C  0.82759454  0.22072370  0.86062285     0.13230
C3304       C  0.79911864  0.19211064  0.86037201    -0.21130
C3305       C  0.77304001  0.18899909  0.87652379    -0.07650
C3306       C  0.77553028  0.21538368  0.89302475     0.13210
C3307       C  0.74800386  0.21450198  0.90853046    -0.24480
H3308       H  0.80574799  0.26414551  0.90522516     0.14500
H3309       H  0.79714481  0.17215487  0.84699778     0.14530
C3310       C  0.85402627  0.22220868  0.84184967    -0.24430
H3311       H  0.75405464  0.23770394  0.91897799     0.04740
H3312       H  0.73891098  0.19766744  0.92930886     0.07970
H3313       H  0.72976069  0.20760675  0.88926355     0.07970
H3314       H  0.85983496  0.20572849  0.85288257     0.07950
H3315       H  0.87493364  0.24593113  0.84218547     0.07950
H3316       H  0.84718515  0.21533457  0.81532704     0.04730
C3317       C  0.83062609  0.33930581  0.01115596    -0.21080
C3318       C  0.85310878  0.36358276  0.53167718    -0.07640
C3319       C  0.88377482  0.38171247  0.52013393     0.13230
C3320       C  0.89135313  0.37471570  0.48912944    -0.21130
C3321       C  0.86903831  0.35122135  0.96778294    -0.07650
C3322       C  0.83824644  0.33290100  0.97924192     0.13210
C3323       C  0.81381611  0.30599151  0.95877079    -0.24480
H3324       H  0.80686194  0.32616064  0.01955810     0.14500
H3325       H  0.91524357  0.38835958  0.48128784     0.14530
C3326       C  0.90879834  0.40913292  0.54000373    -0.24430
H3327       H  0.79102512  0.29418332  0.97141590     0.04740
H3328       H  0.82080435  0.28859574  0.95513149     0.07970
H3329       H  0.81106443  0.31435055  0.93428296     0.07970
H3330       H  0.91188864  0.40094305  0.56421072     0.07950
H3331       H  0.90276529  0.42721181  0.54419087     0.07950
H3332       H  0.93145268  0.42056679  0.52708662     0.04730
C3333       C  0.86873911  0.33665979  0.75368552    -0.21080
C3334       C  0.86363449  0.35063741  0.78159053    -0.07640
C3335       C  0.85051224  0.36916790  0.77667312     0.13230
C3336       C  0.84394669  0.37412411  0.74402974    -0.21130
C3337       C  0.85031897  0.36131761  0.71586118    -0.07650
C3338       C  0.86220973  0.34163899  0.72099427     0.13210
C3339       C  0.87036446  0.32772687  0.69221404    -0.24480
H3340       H  0.87911008  0.32273983  0.75743374     0.14500
H3341       H  0.83496723  0.38929584  0.74042618     0.14530
C3342       C  0.84540857  0.38562486  0.80549954    -0.24430
H3343       H  0.88008732  0.31363102  0.70074415     0.04740
H3344       H  0.88809317  0.34693151  0.67680694     0.07970
H3345       H  0.84943185  0.31215234  0.67693767     0.07970
H3346       H  0.86764878  0.40131274  0.81872993     0.07950
H3347       H  0.82852554  0.36813526  0.82312856     0.07950
H3348       H  0.83613005  0.40014006  0.79703585     0.04730
O3349       O  0.94146940  0.91365374  0.33757017    -0.80910
O3350       O  0.95715994  0.84816534  0.43942644    -0.80930
O3351       O  0.86605703  0.83391211  0.40920239    -0.80940
O3352       O  0.99766157  0.87623420  0.36403672    -0.80880
O3353       O  0.90836949  0.85205309  0.43666713    -0.81000
O3354       O  0.97570667  0.90211117  0.38149321    -0.80920
O3355       O  0.97834478  0.82823223  0.40882840    -0.80910
O3356       O  0.90951738  0.88825758  0.37869424    -0.80950
C3357       C  0.92531816  0.91355429  0.36174202     1.08780
C3358       C  0.97579027  0.83918304  0.43672252     1.08670
C3359       C  0.88102157  0.84532915  0.43626790     1.08800
C3360       C  0.99994316  0.90153415  0.37474136     1.08680
O3361       O  0.96678469  0.88046961  0.31522986    -0.80910
O3362       O  0.87145834  0.78681743  0.41027923    -0.80990
O3363       O  0.86091379  0.84397799  0.34124569    -0.80920
O3364       O  0.93010703  0.78692776  0.36182368    -0.80900
O3365       O  0.92248224  0.78319465  0.41584981    -0.80950
O3366       O  0.90394763  0.85404343  0.31613543    -0.80920
O3367       O  0.95136331  0.83127706  0.31558231    -0.80880
O3368       O  0.86953138  0.79548691  0.35662393    -0.80950
Co3369     Co  0.93870472  0.87673351  0.35250018     1.51530
Co3370     Co  0.91558896  0.81913050  0.42362888     1.51690
Co3371     Co  0.89117504  0.84091922  0.36641500     1.51570
Co3372     Co  0.96222132  0.83090842  0.36290899     1.51470
O3373       O  0.92883436  0.83886893  0.37858717    -1.42840
C3374       C  0.96511519  0.85703793  0.30098433     1.08710
C3375       C  0.85925725  0.77740355  0.38133577     1.08800
C3376       C  0.87637113  0.84939940  0.31455189     1.08740
C3377       C  0.92416823  0.77151859  0.38813774     1.08710
O3378       O  0.96273092  0.62404974  0.31298866    -0.80910
O3379       O  0.92997723  0.54017035  0.41611705    -0.80930
O3380       O  0.49722421  0.62524441  0.37383218    -0.80940
O3381       O  0.86996141  0.53879967  0.33617035    -0.80880
O3382       O  0.98283752  0.59368482  0.41535759    -0.81000
O3383       O  0.91199740  0.56888196  0.30834775    -0.80920
O3384       O  0.90727773  0.53115890  0.36880057    -0.80910
O3385       O  0.98420487  0.66440443  0.34626697    -0.80950
C3386       C  0.98113215  0.65274793  0.31713696     1.08780
C3387       C  0.92086072  0.52441191  0.38956508     1.08670
C3388       C  0.50173160  0.60816155  0.39236419     1.08800
C3389       C  0.88656519  0.54375148  0.31013335     1.08680
O3390       O  0.87608757  0.59255256  0.33530728    -0.80910
O3391       O  0.95429676  0.62778249  0.43946149    -0.80990
O3392       O  0.93687520  0.64995960  0.39594659    -0.80920
O3393       O  0.86131410  0.52724921  0.41013543    -0.80900
O3394       O  0.89613289  0.56987510  0.43707312    -0.80950
O3395       O  0.92798598  0.64955655  0.34252200    -0.80920
O3396       O  0.87323565  0.58466045  0.38841069    -0.80880
O3397       O  0.99582561  0.66715953  0.41721682    -0.80950
Co3398     Co  0.92060021  0.60782742  0.32754722     1.51530
Co3399     Co  0.93987319  0.58410609  0.42204586     1.51690
Co3400     Co  0.96622553  0.63600702  0.38624411     1.51570
Co3401     Co  0.89190233  0.55864479  0.38072083     1.51470
O3402       O  0.93260440  0.59450666  0.37026529    -1.42840
C3403       C  0.86391049  0.59187444  0.36296437     1.08710
C3404       C  0.98228803  0.65094426  0.44286984     1.08800
C3405       C  0.92975886  0.66054455  0.37166491     1.08740
C3406       C  0.87276792  0.54163522  0.43801944     1.08710
O3407       O  0.52410896  0.89279816  0.11852703    -0.80910
O3408       O  0.65198659  0.98135367  0.09280120    -0.80930
O3409       O  0.59097861  0.97547008  0.17432584    -0.80940
O3410       O  0.56031083  0.89769587  0.05838841    -0.80880
O3411       O  0.61463782  0.98811509  0.12803437    -0.81000
O3412       O  0.53777015  0.85496340  0.08645519    -0.80920
O3413       O  0.61090686  0.95318082  0.06151286    -0.80910
O3414       O  0.53753108  0.92316933  0.16238963    -0.80950
C3415       C  0.51958180  0.90987860  0.13787193     1.08780
C3416       C  0.63625057  0.97827667  0.06654773     1.08670
C3417       C  0.60195270  0.99444072  0.15091099     1.08800
C3418       C  0.54132556  0.86890687  0.05918352     1.08680
O3419       O  0.58242268  0.86511623  0.13756861    -0.80910
O3420       O  0.65866700  0.98642746  0.16688354    -0.80990
O3421       O  0.56223485  0.88498553  0.18174816    -0.80920
O3422       O  0.64585253  0.92799205  0.08418150    -0.80900
O3423       O  0.64734779  0.93155783  0.13801746    -0.80950
O3424       O  0.52223642  0.84670406  0.15573730    -0.80920
O3425       O  0.59418500  0.86980636  0.08476828    -0.80880
O3426       O  0.62229455  0.94304721  0.19103354    -0.80950
Co3427     Co  0.55405639  0.88041898  0.12951639     1.51530
Co3428     Co  0.62874080  0.95823737  0.13482152     1.51690
Co3429     Co  0.57936837  0.93065295  0.17242620     1.51570
Co3430     Co  0.60179342  0.91288656  0.07525838     1.51470
O3431       O  0.58867697  0.92357637  0.11963520    -1.42840
C3432       C  0.59091756  0.85628709  0.11235556     1.08710
C3433       C  0.64706183  0.97071552  0.19352203     1.08800
C3434       C  0.53337455  0.86332189  0.18224723     1.08740
C3435       C  0.65790901  0.92727452  0.11122416     1.08710
O3436       O  0.68846247  0.65167201  0.34469145    -0.80910
O3437       O  0.64547477  0.51891704  0.38843319    -0.80930
O3438       O  0.67683308  0.55994371  0.31142133    -0.80940
O3439       O  0.60434100  0.56991612  0.40754894    -0.80880
O3440       O  0.69385379  0.53801819  0.34506509    -0.81000
O3441       O  0.63171880  0.60853001  0.37300193    -0.80920
O3442       O  0.62312723  0.54083607  0.36374050    -0.80910
O3443       O  0.67371345  0.61129720  0.31243081    -0.80950
C3444       C  0.67921531  0.63858728  0.31658043     1.08780
C3445       C  0.62236809  0.51623516  0.37261450     1.08670
C3446       C  0.68335304  0.53945573  0.31671135     1.08800
C3447       C  0.60587719  0.59048617  0.38870683     1.08680
O3448       O  0.67578075  0.65775207  0.40732643    -0.80910
O3449       O  0.73451174  0.58709150  0.39283265    -0.80990
O3450       O  0.73564732  0.64652553  0.34317363    -0.80920
O3451       O  0.63978302  0.55132286  0.43257171    -0.80900
O3452       O  0.68817499  0.56682007  0.43733757    -0.80950
O3453       O  0.72388651  0.64837487  0.39615013    -0.80920
O3454       O  0.65965340  0.61286988  0.43219028    -0.80880
O3455       O  0.73913659  0.59463576  0.33895719    -0.80950
Co3456     Co  0.67929595  0.62626234  0.38558640     1.51530
Co3457     Co  0.69034719  0.55524035  0.39040025     1.51690
Co3458     Co  0.70448286  0.60218373  0.32865249     1.51570
Co3459     Co  0.64313271  0.57754195  0.39449701     1.51470
O3460       O  0.68285281  0.58904995  0.37309321    -1.42840
C3461       C  0.66447855  0.64104715  0.43273460     1.08710
C3462       C  0.75064739  0.59387426  0.36691771     1.08800
C3463       C  0.74292055  0.65934953  0.37217088     1.08740
C3464       C  0.66164578  0.55373759  0.44984765     1.08710
O3465       O  0.53319130  0.62011812  0.17394045    -0.80910
O3466       O  0.62089262  0.70224389  0.05178513    -0.80930
O3467       O  0.52842926  0.67379811  0.09853114    -0.80940
O3468       O  0.59377680  0.61896963  0.12469804    -0.80880
O3469       O  0.56242928  0.66496812  0.07328952    -0.81000
O3470       O  0.58449918  0.61510859  0.17816957    -0.80920
O3471       O  0.62554517  0.66650689  0.07798009    -0.80910
O3472       O  0.53624330  0.62726168  0.12044222    -0.80950
C3473       C  0.52206084  0.61025498  0.14478575     1.08780
C3474       C  0.62601812  0.68000608  0.05095240     1.08670
C3475       C  0.53849066  0.66779754  0.07205623     1.08800
C3476       C  0.58761737  0.60341340  0.15115080     1.08680
O3477       O  0.62001518  0.67885392  0.20560991    -0.80910
O3478       O  0.59571740  0.72954689  0.09068953    -0.80990
O3479       O  0.53204466  0.66970232  0.16954786    -0.80920
O3480       O  0.66440908  0.70646857  0.13209440    -0.80900
O3481       O  0.64315620  0.73101890  0.11271050    -0.80950
O3482       O  0.57173118  0.68477784  0.20135301    -0.80920
O3483       O  0.63962617  0.65849132  0.17361169    -0.80880
O3484       O  0.57520505  0.71876077  0.13884281    -0.80950
Co3485     Co  0.57838039  0.65152254  0.18690573     1.51530
Co3486     Co  0.60415613  0.69526662  0.09601488     1.51690
Co3487     Co  0.55737795  0.67346461  0.12835894     1.51570
Co3488     Co  0.62717369  0.66340069  0.12816691     1.51470
O3489       O  0.59506462  0.67601421  0.14320253    -1.42840
C3490       C  0.63939036  0.67084809  0.20111556     1.08710
C3491       C  0.58668430  0.73796453  0.11563676     1.08800
C3492       C  0.54554922  0.68079197  0.19754709     1.08740
C3493       C  0.66591817  0.73169405  0.12549332     1.08710
O3494       O  0.91141251  0.93690549  0.15878655    -0.80910
O3495       O  0.84000540  0.94981295  0.05362377    -0.80930
O3496       O  0.83317755  0.86150055  0.08731678    -0.80940
O3497       O  0.87697681  0.99397988  0.13298671    -0.80880
O3498       O  0.84552861  0.90120702  0.05600950    -0.81000
O3499       O  0.89964754  0.96971000  0.11327382    -0.80920
O3500       O  0.82799818  0.97599932  0.08850894    -0.80910
O3501       O  0.88637187  0.90418670  0.11748193    -0.80950
C3502       C  0.91065279  0.91862911  0.13622277     1.08780
C3503       C  0.83583602  0.97191596  0.05952440     1.08670
C3504       C  0.84328778  0.87547583  0.05987206     1.08800
C3505       C  0.90124157  0.99501017  0.12178045     1.08680
O3506       O  0.87950413  0.96238667  0.17987417    -0.80910
O3507       O  0.78408360  0.86409924  0.08715022    -0.80990
O3508       O  0.84367643  0.85681905  0.15551583    -0.80920
O3509       O  0.78605916  0.93002987  0.13605768    -0.80900
O3510       O  0.77924085  0.91615503  0.08303565    -0.80950
O3511       O  0.85270199  0.90038668  0.17982454    -0.80920
O3512       O  0.83141293  0.94833150  0.18097060    -0.80880
O3513       O  0.79596267  0.86531115  0.14034754    -0.80950
Co3514     Co  0.87473677  0.93368760  0.14273359     1.51530
Co3515     Co  0.81392184  0.90870064  0.07257233     1.51690
Co3516     Co  0.84018934  0.88700413  0.12992662     1.51570
Co3517     Co  0.83089826  0.95958392  0.13386404     1.51470
O3518       O  0.83692266  0.92435869  0.11686143    -1.42840
C3519       C  0.85720911  0.96108923  0.19531283     1.08710
C3520       C  0.77737172  0.85235366  0.11621606     1.08800
C3521       C  0.84868100  0.87286097  0.18217102     1.08740
C3522       C  0.76911775  0.92055314  0.11042606     1.08710
C3523       C  0.93524398  0.54855202  0.14717826    -0.21080
C3524       C  0.93235331  0.52523016  0.12466855    -0.07640
C3525       C  0.95968736  0.53049120  0.10850766     0.13230
C3526       C  0.98850141  0.55816900  0.11568604    -0.21130
C3527       C  0.99126122  0.58069989  0.13912101    -0.07650
C3528       C  0.96401413  0.57589664  0.15452324     0.13210
C3529       C  0.96487549  0.60029225  0.17765102    -0.24480
H3530       H  0.91483390  0.54521491  0.15977067     0.14500
H3531       H  0.50917339  0.56213790  0.10312226     0.14530
C3532       C  0.95888145  0.50744776  0.08328511    -0.24430
H3533       H  0.94154876  0.59317773  0.18717562     0.04740
H3534       H  0.97376177  0.62238391  0.16388838     0.07970
H3535       H  0.98002695  0.60437272  0.19948506     0.07970
H3536       H  0.94202984  0.00305185  0.06311724     0.07950
H3537       H  0.95235805  0.98514450  0.09552790     0.07950
H3538       H  0.98181994  0.51633881  0.07157366     0.04730
C3539       C  0.72256479  0.76451362  0.12006867    -0.21080
C3540       C  0.69498219  0.76238475  0.12972705    -0.07640
C3541       C  0.69524219  0.79029005  0.13742649     0.13230
C3542       C  0.72241642  0.81943712  0.13260206    -0.21130
C3543       C  0.74939617  0.82137498  0.12112413    -0.07650
C3544       C  0.74971675  0.79364801  0.11552688     0.13210
C3545       C  0.77839299  0.79460704  0.10378378    -0.24480
H3546       H  0.72245131  0.74329195  0.11410550     0.14500
H3547       H  0.72252475  0.84078123  0.13778640     0.14530
C3548       C  0.66762845  0.79036627  0.15131630    -0.24430
H3549       H  0.77461714  0.77078091  0.10093693     0.04740
H3550       H  0.79738848  0.80782460  0.12216352     0.07970
H3551       H  0.78525733  0.80593756  0.07910667     0.07970
H3552       H  0.64816161  0.76671164  0.15755315     0.07950
H3553       H  0.65956508  0.80105279  0.13308511     0.07950
H3554       H  0.67440349  0.80451073  0.17483188     0.04730
C3555       C  0.65297048  0.68039565  0.26121397    -0.21080
C3556       C  0.65771183  0.67079076  0.22970372    -0.07640
C3557       C  0.67603563  0.65705210  0.22747041     0.13230
C3558       C  0.68480177  0.64910174  0.25684552    -0.21130
C3559       C  0.67613338  0.65472934  0.28809318    -0.07650
C3560       C  0.66205586  0.67252932  0.29054505     0.13210
C3561       C  0.65439388  0.68104862  0.32377621    -0.24480
H3562       H  0.64015643  0.69213317  0.26315114     0.14500
H3563       H  0.69704162  0.63672572  0.25538720     0.14530
C3564       C  0.68545316  0.64918775  0.19472896    -0.24430
H3565       H  0.64195052  0.69369065  0.32111078     0.04740
H3566       H  0.67594200  0.69626562  0.33830427     0.07970
H3567       H  0.63942344  0.65934389  0.33756024     0.07970
H3568       H  0.69688593  0.67019559  0.17879369     0.07950
H3569       H  0.66500055  0.62965775  0.18168373     0.07950
H3570       H  0.70212985  0.64146586  0.19845373     0.04730
C3571       C  0.64427253  0.63298851  0.98985833    -0.21080
C3572       C  0.65579017  0.65277595  0.46249992    -0.07640
C3573       C  0.65566477  0.68111566  0.46342821     0.13230
C3574       C  0.64499741  0.68901445  0.99218421    -0.21130
C3575       C  0.63406093  0.66932864  0.01981307    -0.07650
C3576       C  0.63315634  0.64044502  0.01810290     0.13210
C3577       C  0.62045526  0.61666696  0.04553745    -0.24480
H3578       H  0.64369683  0.61107355  0.98920979     0.14500
H3579       H  0.64563595  0.71095120  0.99325326     0.14530
C3580       C  0.66625316  0.70316965  0.43444922    -0.24430
H3581       H  0.61874977  0.59440196  0.03798270     0.04740
H3582       H  0.59679103  0.61082281  0.05227596     0.07970
H3583       H  0.63619550  0.62598693  0.06750719     0.07970
H3584       H  0.65177324  0.69099263  0.41206979     0.07950
H3585       H  0.69090965  0.71199276  0.42907558     0.07950
H3586       H  0.66424275  0.72383136  0.43979693     0.04730
C3587       C  0.62021704  0.99670667  0.51916824    -0.21080
C3588       C  0.64463043  0.00231964  0.04061010    -0.07640
C3589       C  0.67462479  0.52778662  0.03408508     0.13230
C3590       C  0.67952141  0.54540939  0.00499459    -0.21130
C3591       C  0.65514557  0.53773797  0.48231258    -0.07650
C3592       C  0.62497061  0.01281199  0.48982560     0.13210
C3593       C  0.59746357  0.00101537  0.46649521    -0.24480
H3594       H  0.59672719  0.97822292  0.52453872     0.14500
H3595       H  0.70262339  0.56459028  0.99942023     0.14530
C3596       C  0.70134403  0.53595344  0.05697880    -0.24430
H3597       H  0.57628900  0.98014663  0.47620549     0.04740
H3598       H  0.60253511  0.99381423  0.44217366     0.07970
H3599       H  0.59178501  0.01935013  0.46300182     0.07970
H3600       H  0.70480701  0.51590139  0.05832151     0.07950
H3601       H  0.69656881  0.54162388  0.08234550     0.07950
H3602       H  0.72316678  0.55658245  0.04807524     0.04730
C3603       C  0.65759551  0.48759517  0.28795968    -0.21080
C3604       C  0.68067116  0.51929620  0.28802547    -0.07640
C3605       C  0.69677612  0.53285583  0.25816784     0.13230
C3606       C  0.68703611  0.51536953  0.22819039    -0.21130
C3607       C  0.66129272  0.98458509  0.22704335    -0.07650
C3608       C  0.64773155  0.96993283  0.25793623     0.13210
C3609       C  0.62176375  0.93633597  0.25980742    -0.24480
H3610       H  0.64558270  0.47728382  0.31103591     0.14500
H3611       H  0.69851788  0.52663887  0.20522893     0.14530
C3612       C  0.72382646  0.56619943  0.25771179    -0.24430
H3613       H  0.61525692  0.92867613  0.28599291     0.04740
H3614       H  0.62869017  0.92087364  0.24771683     0.07970
H3615       H  0.60112835  0.93367874  0.24734671     0.07970
H3616       H  0.74184818  0.56903210  0.27558108     0.07950
H3617       H  0.71631909  0.58269254  0.26471392     0.07950
H3618       H  0.73446144  0.57272687  0.23258546     0.04730
C3619       C  0.58593408  0.52915279  0.17840786    -0.21080
C3620       C  0.59932532  0.52304536  0.15070007    -0.07640
C3621       C  0.60833409  0.54354691  0.12327838     0.13230
C3622       C  0.60316359  0.56850291  0.12410126    -0.21130
C3623       C  0.58929774  0.57431753  0.15140917    -0.07650
C3624       C  0.58033723  0.55393168  0.17896779     0.13210
C3625       C  0.56425893  0.55743915  0.20890833    -0.24480
H3626       H  0.57912472  0.51396682  0.19974262     0.14500
H3627       H  0.61054842  0.58395482  0.10315051     0.14530
C3628       C  0.62334044  0.53956276  0.09274295    -0.24430
H3629       H  0.55686878  0.53805588  0.22672624     0.04740
H3630       H  0.54323025  0.55718589  0.20072401     0.07970
H3631       H  0.58012774  0.57959391  0.22262527     0.07970
H3632       H  0.60709887  0.51663946  0.08063651     0.07950
H3633       H  0.64519543  0.54102381  0.09985309     0.07950
H3634       H  0.62919705  0.55792785  0.07401533     0.04730
C3635       C  0.60677943  0.79097023  0.09235883    -0.21080
C3636       C  0.58931066  0.76907373  0.11705113    -0.07640
C3637       C  0.57427344  0.77720916  0.14148058     0.13230
C3638       C  0.57645135  0.80627791  0.13980206    -0.21130
C3639       C  0.59292062  0.82765920  0.11432562    -0.07650
C3640       C  0.60878803  0.81996606  0.09060372     0.13210
C3641       C  0.62829956  0.84214913  0.06357166    -0.24480
H3642       H  0.61880990  0.78525875  0.07391867     0.14500
H3643       H  0.56418163  0.81184873  0.15807713     0.14530
C3644       C  0.55511722  0.75534132  0.16899523    -0.24430
H3645       H  0.64075058  0.83318954  0.04889720     0.04740
H3646       H  0.64585151  0.86487869  0.07503233     0.07970
H3647       H  0.61359295  0.84552523  0.04584458     0.07970
H3648       H  0.56988793  0.75056348  0.18511289     0.07950
H3649       H  0.53587904  0.73310973  0.15811043     0.07950
H3650       H  0.54467140  0.76547159  0.18527242     0.04730
C3651       C  0.72694183  0.92208016  0.08140731    -0.21080
C3652       C  0.73849326  0.91812809  0.11140648    -0.07640
C3653       C  0.72209157  0.91510317  0.14135098     0.13230
C3654       C  0.69561245  0.91747851  0.14038796    -0.21130
C3655       C  0.68511117  0.92321849  0.11050263    -0.07650
C3656       C  0.70110389  0.92523412  0.08039514     0.13210
C3657       C  0.69223413  0.93174413  0.04682748    -0.24480
H3658       H  0.73908831  0.92412879  0.05846728     0.14500
H3659       H  0.68333927  0.91536364  0.16332815     0.14530
C3660       C  0.73199500  0.90918081  0.17448191    -0.24430
H3661       H  0.70813768  0.93348381  0.02669380     0.04740
H3662       H  0.69324692  0.95440248  0.04788893     0.07970
H3663       H  0.66869928  0.91249366  0.03943045     0.07970
H3664       H  0.75440632  0.92988971  0.18250145     0.07950
H3665       H  0.73411433  0.88828441  0.17243217     0.07950
H3666       H  0.71500340  0.90480625  0.19443138     0.04730
C3667       C  0.96676712  0.94240307  0.13976977    -0.21080
C3668       C  0.93813484  0.91591858  0.13109709    -0.07640
C3669       C  0.93712414  0.88805798  0.12080878     0.13230
C3670       C  0.96451620  0.88743755  0.12160452    -0.21130
C3671       C  0.99253847  0.91330706  0.13303878    -0.07650
C3672       C  0.99375971  0.94148430  0.14093559     0.13210
C3673       C  0.52347592  0.97102162  0.15002777    -0.24480
H3674       H  0.96797504  0.96403899  0.14658133     0.14500
H3675       H  0.96359314  0.86592975  0.11485408     0.14530
C3676       C  0.90815737  0.85801528  0.11006518    -0.24430
H3677       H  0.52051983  0.99138659  0.15278429     0.04740
H3678       H  0.54056357  0.97634435  0.12995478     0.07970
H3679       H  0.53217474  0.96820958  0.17424222     0.07970
H3680       H  0.90540026  0.83842852  0.12531779     0.07950
H3681       H  0.88670417  0.85829827  0.11260990     0.07950
H3682       H  0.91035446  0.85271251  0.08353789     0.04730
C3683       C  0.98881629  0.63060906  0.99564226    -0.21080
C3684       C  0.99752898  0.65687702  0.47586832    -0.07640
C3685       C  0.51989512  0.68696591  0.48822530     0.13230
C3686       C  0.53228121  0.68988011  0.02037023    -0.21130
C3687       C  0.52292089  0.66348585  0.04002478    -0.07650
C3688       C  0.50101429  0.63354347  0.02765969     0.13210
C3689       C  0.49071856  0.60477519  0.04812182    -0.24480
H3690       H  0.97295356  0.60747482  0.98557249     0.14500
H3691       H  0.54965650  0.71279664  0.03009759     0.14530
C3692       C  0.53054639  0.71590684  0.46801888    -0.24430
H3693       H  0.97312541  0.58310341  0.03472537     0.04740
H3694       H  0.98037090  0.60665087  0.07184592     0.07970
H3695       H  0.51085381  0.60253428  0.05386040     0.07970
H3696       H  0.51041252  0.71780580  0.46117275     0.07950
H3697       H  0.54223772  0.71481326  0.44503271     0.07950
H3698       H  0.54728412  0.73747625  0.48217865     0.04730
C3699       C  0.52943446  0.68967244  0.28818031    -0.21080
C3700       C  0.99728241  0.67098521  0.28743308    -0.07640
C3701       C  0.98145697  0.66431871  0.25634655     0.13230
C3702       C  0.99833411  0.67160498  0.22663126    -0.21130
C3703       C  0.53038488  0.68494686  0.22734364    -0.07650
C3704       C  0.54640034  0.69702446  0.25845644     0.13210
C3705       C  0.58124178  0.71622069  0.26127582    -0.24480
H3706       H  0.54138308  0.69579447  0.31206909     0.14920
H3707       H  0.98613991  0.66447850  0.20294622     0.14530
C3708       C  0.94669233  0.64863498  0.25416165    -0.24430
H3709       H  0.58893074  0.72703921  0.28655638     0.04740
H3710       H  0.59077743  0.73547884  0.24301763     0.07970
H3711       H  0.59114494  0.70129790  0.25711383     0.07970
H3712       H  0.93913329  0.66263842  0.26824123     0.07950
H3713       H  0.93489098  0.62472027  0.26425671     0.07950
H3714       H  0.93869067  0.64649325  0.22792199     0.04730
C3715       C  0.83289283  0.99697717  0.47166798    -0.21080
C3716       C  0.85999450  0.52673601  0.47111553    -0.07640
C3717       C  0.87589664  0.54014969  0.00203093     0.13230
C3718       C  0.86535682  0.52282513  0.03152627    -0.21130
C3719       C  0.83993011  0.99227842  0.03117623    -0.07650
C3720       C  0.82286960  0.97954692  0.50113313     0.13210
C3721       C  0.79421728  0.94726545  0.49996625    -0.24480
H3722       H  0.82019402  0.98660974  0.44862274     0.14500
H3723       H  0.87853496  0.53222703  0.05451580     0.14530
C3724       C  0.90538334  0.57166721  0.00433773    -0.24430
H3725       H  0.78322527  0.94123535  0.47481574     0.04740
H3726       H  0.77717250  0.94626773  0.01803102     0.07970
H3727       H  0.79990644  0.92939015  0.50627912     0.07970
H3728       H  0.90136598  0.59019762  0.99578590     0.07950
H3729       H  0.92312564  0.57099179  0.48886188     0.07950
H3730       H  0.91463080  0.57792960  0.03025913     0.04730
C3731       C  0.84910772  0.49380051  0.27928147    -0.21080
C3732       C  0.87863447  0.52112715  0.28176453    -0.07640
C3733       C  0.90088934  0.52687140  0.25633290     0.13230
C3734       C  0.89288838  0.50543569  0.23023839    -0.21130
C3735       C  0.86325513  0.97912575  0.22684559    -0.07650
C3736       C  0.84094036  0.47292154  0.25173164     0.13210
C3737       C  0.80884798  0.94433588  0.24966293    -0.24480
H3738       H  0.83217984  0.48914910  0.29844155     0.14500
H3739       H  0.90987484  0.01029451  0.21105076     0.14530
C3740       C  0.93326526  0.55571721  0.25476036    -0.24430
H3741       H  0.79502588  0.44230722  0.27208472     0.04740
H3742       H  0.81019601  0.92297689  0.24774181     0.07970
H3743       H  0.79646024  0.94560856  0.22755731     0.07970
H3744       H  0.94688257  0.55827063  0.27743809     0.07950
H3745       H  0.93191750  0.57685888  0.25138969     0.07950
H3746       H  0.94678411  0.55482615  0.23338656     0.04730
C3747       C  0.52346061  0.57436292  0.39260425    -0.21080
C3748       C  0.52848506  0.60424418  0.38780351    -0.07640
C3749       C  0.55882931  0.62942413  0.38164657     0.13230
C3750       C  0.58340824  0.62400327  0.38109010    -0.21130
C3751       C  0.57851241  0.59404414  0.38604055    -0.07650
C3752       C  0.54785046  0.56892034  0.39230328     0.13210
C3753       C  0.54017948  0.53620076  0.39926664    -0.24480
H3754       H  0.50015575  0.55511608  0.39745932     0.14500
H3755       H  0.60676069  0.64366874  0.37891150     0.14530
C3756       C  0.56569374  0.66227015  0.37752642    -0.24430
H3757       H  0.51484061  0.51929200  0.40073318     0.04740
H3758       H  0.55039325  0.53555370  0.42346932     0.07970
H3759       H  0.54917567  0.52832317  0.37883000     0.07970
H3760       H  0.55793690  0.66955370  0.39995981     0.07950
H3761       H  0.55353212  0.66333872  0.35507662     0.07950
H3762       H  0.59082453  0.67928583  0.37429064     0.04730
C3763       C  0.80017760  0.60756945  0.33960181    -0.21080
C3764       C  0.78198502  0.59796438  0.36850869    -0.07640
C3765       C  0.79324604  0.59025147  0.39701075     0.13230
C3766       C  0.82066706  0.58987065  0.39462564    -0.21130
C3767       C  0.83743127  0.59691003  0.36479720    -0.07650
C3768       C  0.82765043  0.60729344  0.33728377     0.13210
C3769       C  0.84557512  0.61801954  0.30512012    -0.24480
H3770       H  0.79237508  0.61449871  0.31810070     0.14500
H3771       H  0.82843516  0.58284120  0.41606980     0.14530
C3772       C  0.77647069  0.58144027  0.42996412    -0.24430
H3773       H  0.83539242  0.62715106  0.28751743     0.04740
H3774       H  0.84535365  0.59815598  0.29222596     0.07970
H3775       H  0.86972986  0.63721053  0.31042217     0.07970
H3776       H  0.75346005  0.55966039  0.42693482     0.07950
H3777       H  0.77386381  0.60084530  0.43948480     0.07950
H3778       H  0.78926270  0.57696038  0.44932095     0.04730
C3779       C  0.52381693  0.85270097  0.46711503    -0.21080
C3780       C  0.99177625  0.83916140  0.46742822    -0.07640
C3781       C  0.97564087  0.82914080  0.99822929     0.13230
C3782       C  0.99238742  0.83615976  0.02820686    -0.21130
C3783       C  0.52464013  0.85319616  0.02807030    -0.07650
C3784       C  0.54055793  0.86006826  0.49716827     0.13210
C3785       C  0.57530035  0.87580099  0.49572653    -0.24480
H3786       H  0.53596042  0.85961399  0.44353711     0.14500
H3787       H  0.98036516  0.83057189  0.05187891     0.14530
C3788       C  0.94076138  0.81151891  0.99990935    -0.24430
H3789       H  0.58348208  0.87732780  0.46967260     0.04740
H3790       H  0.58272433  0.86213817  0.51019681     0.07970
H3791       H  0.58673881  0.90002175  0.00600594     0.07970
H3792       H  0.93079777  0.79042726  0.48340824     0.07950
H3793       H  0.93190796  0.82659989  0.99237516     0.07950
H3794       H  0.93235235  0.80359867  0.02563021     0.04730
C3795       C  0.96655816  0.83724356  0.24408261    -0.21080
C3796       C  0.98155346  0.86002392  0.26945015    -0.07640
C3797       C  0.51292550  0.88369810  0.26545632     0.13230
C3798       C  0.52841025  0.88369721  0.23666287    -0.21130
C3799       C  0.51404957  0.86067516  0.21152704    -0.07650
C3800       C  0.98222389  0.83750585  0.21484887     0.13210
C3801       C  0.96448080  0.81318375  0.18800146    -0.24480
H3802       H  0.94243713  0.81916958  0.24720461     0.14500
H3803       H  0.55229209  0.90212030  0.23387527     0.14530
C3804       C  0.53105773  0.90823400  0.29199513    -0.24430
H3805       H  0.93996946  0.79702783  0.19508901     0.04740
H3806       H  0.97509215  0.79893092  0.18352370     0.07970
H3807       H  0.96450364  0.82478837  0.16460169     0.07970
H3808       H  0.53204698  0.89675863  0.31490665     0.07950
H3809       H  0.52031243  0.92219720  0.29707883     0.07950
H3810       H  0.55531834  0.92484110  0.28441408     0.04730
C3811       C  0.93487766  0.96537115  0.34606427    -0.21080
C3812       C  0.92567030  0.94259376  0.37067977    -0.07640
C3813       C  0.91757198  0.94850837  0.40270559     0.13230
C3814       C  0.91743821  0.97608552  0.40858345    -0.21130
C3815       C  0.92481126  0.99770345  0.38325392    -0.07650
C3816       C  0.93457514  0.99276443  0.35194565     0.13210
C3817       C  0.94504462  0.01643638  0.32472515    -0.24480
H3818       H  0.94176726  0.96149106  0.32170850     0.14500
H3819       H  0.91048073  0.98028871  0.43275377     0.14530
C3820       C  0.90930965  0.92629093  0.43099654    -0.24430
H3821       H  0.95368818  0.00973297  0.30259210     0.04740
H3822       H  0.96395749  0.53961492  0.33411785     0.07970
H3823       H  0.92523502  0.01809838  0.31646016     0.07970
H3824       H  0.92834179  0.92192127  0.43509868     0.07950
H3825       H  0.88738569  0.90413821  0.42501032     0.07950
H3826       H  0.90576620  0.93576399  0.45471335     0.04730
C3827       C  0.90843146  0.68917258  0.40118467    -0.21080
C3828       C  0.92760213  0.68841826  0.37625094    -0.07640
C3829       C  0.94572279  0.71503795  0.35656509     0.13230
C3830       C  0.94347591  0.74120244  0.36147589    -0.21130
C3831       C  0.92412954  0.74216257  0.38586773    -0.07650
C3832       C  0.90647139  0.71594685  0.40628981     0.13210
C3833       C  0.88511869  0.71576068  0.43256579    -0.24480
H3834       H  0.89484556  0.66873678  0.41640471     0.14500
H3835       H  0.95779526  0.76161496  0.34646194     0.14530
C3836       C  0.96897363  0.71714651  0.33151367    -0.24430
H3837       H  0.87210077  0.69282192  0.44512681     0.04740
H3838       H  0.86812232  0.72043098  0.42094144     0.07970
H3839       H  0.89866746  0.73395784  0.45194500     0.07970
H3840       H  0.95736671  0.69896254  0.31176708     0.07950
H3841       H  0.48680437  0.71469475  0.34449190     0.07950
H3842       H  0.48122203  0.74006948  0.31884775     0.04730
C3843       C  0.56621577  0.98547033  0.35873486    -0.21080
C3844       C  0.59242135  0.98509572  0.36913339    -0.07640
C3845       C  0.58790847  0.95598026  0.37958091     0.13230
C3846       C  0.55753176  0.92981261  0.38291351    -0.21130
C3847       C  0.53124869  0.93114132  0.37493273    -0.07650
C3848       C  0.53602735  0.95948187  0.36192943     0.13210
C3849       C  0.50968807  0.96248629  0.34980602    -0.24480
H3850       H  0.56933944  0.50658733  0.34805516     0.14500
H3851       H  0.55438344  0.90781270  0.39105544     0.14530
C3852       C  0.61410308  0.95071747  0.38586594    -0.24430
H3853       H  0.51769445  0.98595204  0.33955290     0.04740
H3854       H  0.99383246  0.95880790  0.37074241     0.07970
H3855       H  0.99738027  0.94525833  0.32934412     0.07970
H3856       H  0.61620929  0.94811633  0.41303472     0.07950
H3857       H  0.63650177  0.96940322  0.37597979     0.07950
H3858       H  0.60923632  0.92890993  0.37270137     0.04730
C3859       C  0.80403884  0.74375024  0.39353162    -0.21080
C3860       C  0.83016699  0.74675412  0.37800797    -0.07640
C3861       C  0.82759452  0.72072368  0.36062286     0.13230
C3862       C  0.79911862  0.69211062  0.36037203    -0.21130
C3863       C  0.77303999  0.68899909  0.37652376    -0.07650
C3864       C  0.77553025  0.71538370  0.39302467     0.13210
C3865       C  0.74800381  0.71450202  0.40853034    -0.24480
H3866       H  0.80574795  0.76414555  0.40522503     0.14500
H3867       H  0.79714479  0.67215484  0.34699784     0.14530
C3868       C  0.85402626  0.72220864  0.34184971    -0.24430
H3869       H  0.75405459  0.73770399  0.41897783     0.04740
H3870       H  0.73891093  0.69766750  0.42930876     0.07970
H3871       H  0.72976065  0.70760676  0.38926342     0.07970
H3872       H  0.85983494  0.70572847  0.35288266     0.07950
H3873       H  0.87493362  0.74593109  0.34218549     0.07950
H3874       H  0.84718514  0.71533449  0.31532709     0.04730
C3875       C  0.83062603  0.83930577  0.51115591    -0.21080
C3876       C  0.85310882  0.86358279  0.03167714    -0.07640
C3877       C  0.88377484  0.88171254  0.02013386     0.13230
C3878       C  0.89135316  0.87471577  0.98912938    -0.21130
C3879       C  0.86903825  0.85122132  0.46778288    -0.07650
C3880       C  0.83824637  0.83290098  0.47924186     0.13210
C3881       C  0.81381603  0.80599152  0.45877070    -0.24480
H3882       H  0.80686188  0.82616061  0.51955804     0.14500
H3883       H  0.91524359  0.88835967  0.98128777     0.14530
C3884       C  0.90879834  0.90913306  0.04000362    -0.24430
H3885       H  0.79102505  0.79418334  0.47141580     0.04740
H3886       H  0.82080425  0.78859573  0.45513138     0.07970
H3887       H  0.81106437  0.81435059  0.43428288     0.07970
H3888       H  0.91188869  0.90094324  0.06421062     0.07950
H3889       H  0.90276523  0.92721191  0.04419074     0.07950
H3890       H  0.93145267  0.92056696  0.02708649     0.04730
C3891       C  0.86873924  0.83665991  0.25368543    -0.21080
C3892       C  0.86363451  0.85063743  0.28159044    -0.07640
C3893       C  0.85051219  0.86916786  0.27667304     0.13230
C3894       C  0.84394665  0.87412409  0.24402966    -0.21130
C3895       C  0.85031904  0.86131768  0.21586109    -0.07650
C3896       C  0.86220989  0.84163914  0.22099418     0.13210
C3897       C  0.87036477  0.82772715  0.19221393    -0.24480
H3898       H  0.87911028  0.82274000  0.25743365     0.14500
H3899       H  0.83496713  0.88929576  0.24042611     0.14530
C3900       C  0.84540841  0.88562473  0.30549947    -0.24430
H3901       H  0.88008770  0.81363137  0.20074404     0.04740
H3902       H  0.88809347  0.84693185  0.17680690     0.07970
H3903       H  0.84943221  0.81215259  0.17693751     0.07970
H3904       H  0.86764858  0.90131263  0.31872992     0.07950
H3905       H  0.82852537  0.86813507  0.32312844     0.07950
H3906       H  0.83612984  0.90013989  0.29703579     0.04730
O3907       O  0.94146947  0.91365373  0.83757015    -0.80910
O3908       O  0.95715998  0.84816531  0.93942647    -0.80930
O3909       O  0.86605710  0.83391215  0.90920241    -0.80940
O3910       O  0.99766161  0.87623414  0.86403671    -0.80880
O3911       O  0.90836956  0.85205311  0.93666716    -0.81000
O3912       O  0.97570675  0.90211116  0.88149317    -0.80920
O3913       O  0.97834480  0.82823219  0.90882841    -0.80910
O3914       O  0.90951747  0.88825761  0.87869425    -0.80950
C3915       C  0.92531825  0.91355432  0.86174202     1.08780
C3916       C  0.97579030  0.83918300  0.93672253     1.08670
C3917       C  0.88102164  0.84532919  0.93626793     1.08800
C3918       C  0.99994323  0.90153411  0.87474133     1.08680
O3919       O  0.96678472  0.88046956  0.81522985    -0.80910
O3920       O  0.87145837  0.78681744  0.91027925    -0.80990
O3921       O  0.86091386  0.84397804  0.84124573    -0.80920
O3922       O  0.93010702  0.78692773  0.86182371    -0.80900
O3923       O  0.92248224  0.78319463  0.91584984    -0.80950
O3924       O  0.90394767  0.85404343  0.81613544    -0.80920
O3925       O  0.95136332  0.83127700  0.81558232    -0.80880
O3926       O  0.86953141  0.79548693  0.85662396    -0.80950
Co3927     Co  0.93870478  0.87673350  0.85250017     1.51530
Co3928     Co  0.91558899  0.81913050  0.92362890     1.51690
Co3929     Co  0.89117510  0.84091924  0.86641502     1.51570
Co3930     Co  0.96222134  0.83090838  0.86290900     1.51470
O3931       O  0.92883440  0.83886893  0.87858719    -1.42840
C3932       C  0.96511522  0.85703787  0.80098433     1.08710
C3933       C  0.85925727  0.77740357  0.88133579     1.08800
C3934       C  0.87637118  0.84939942  0.81455191     1.08740
C3935       C  0.92416822  0.77151856  0.88813778     1.08710
O3936       O  0.96273086  0.62404972  0.81298864    -0.80910
O3937       O  0.92997717  0.54017031  0.91611702    -0.80930
O3938       O  0.49722413  0.62524430  0.87383214    -0.80940
O3939       O  0.86996135  0.53879967  0.83617035    -0.80880
O3940       O  0.98283748  0.59368477  0.91535757    -0.81000
O3941       O  0.91199733  0.56888196  0.80834773    -0.80920
O3942       O  0.90727766  0.53115887  0.86880055    -0.80910
O3943       O  0.98420483  0.66440438  0.84626697    -0.80950
C3944       C  0.98113211  0.65274790  0.81713696     1.08780
C3945       C  0.92086065  0.52441188  0.88956505     1.08670
C3946       C  0.50173153  0.60816146  0.89236416     1.08800
C3947       C  0.88656512  0.54375148  0.81013334     1.08680
O3948       O  0.87608753  0.59255257  0.83530730    -0.80910
O3949       O  0.95429677  0.62778247  0.93946152    -0.80990
O3950       O  0.93687518  0.64995956  0.89594662    -0.80920
O3951       O  0.86131403  0.52724919  0.91013541    -0.80900
O3952       O  0.89613284  0.56987507  0.93707312    -0.80950
O3953       O  0.92798595  0.64955655  0.84252204    -0.80920
O3954       O  0.87323562  0.58466045  0.88841071    -0.80880
O3955       O  0.99582560  0.66715947  0.91721679    -0.80950
Co3956     Co  0.92060016  0.60782742  0.82754723     1.51530
Co3957     Co  0.93987315  0.58410606  0.92204585     1.51690
Co3958     Co  0.96622550  0.63600697  0.88624411     1.51570
Co3959     Co  0.89190228  0.55864477  0.88072083     1.51470
O3960       O  0.93260436  0.59450663  0.87026528    -1.42840
C3961       C  0.86391046  0.59187446  0.86296440     1.08710
C3962       C  0.98228805  0.65094424  0.94286983     1.08800
C3963       C  0.92975885  0.66054453  0.87166495     1.08740
C3964       C  0.87276785  0.54163519  0.93801943     1.08710
O3965       O  0.52410894  0.89279811  0.61852703    -0.80910
O3966       O  0.65198658  0.98135363  0.59280124    -0.80930
O3967       O  0.59097859  0.97547001  0.67432589    -0.80940
O3968       O  0.56031083  0.89769585  0.55838839    -0.80880
O3969       O  0.61463782  0.98811506  0.62803443    -0.81000
O3970       O  0.53777013  0.85496338  0.58645516    -0.80920
O3971       O  0.61090686  0.95318080  0.56151289    -0.80910
O3972       O  0.53753107  0.92316928  0.66238964    -0.80950
C3973       C  0.51958179  0.90987855  0.63787194     1.08780
C3974       C  0.63625058  0.97827665  0.56654777     1.08670
C3975       C  0.60195270  0.99444067  0.65091105     1.08800
C3976       C  0.54132554  0.86890686  0.55918350     1.08680
O3977       O  0.58242266  0.86511617  0.63756857    -0.80910
O3978       O  0.65866699  0.98642738  0.66688356    -0.80990
O3979       O  0.56223484  0.88498546  0.68174814    -0.80920
O3980       O  0.64585251  0.92799200  0.58418151    -0.80900
O3981       O  0.64734775  0.93155776  0.63801747    -0.80950
O3982       O  0.52223641  0.84670400  0.65573727    -0.80920
O3983       O  0.59418497  0.86980632  0.58476823    -0.80880
O3984       O  0.62229454  0.94304714  0.69103357    -0.80950
Co3985     Co  0.55405637  0.88041893  0.62951637     1.51530
Co3986     Co  0.62874078  0.95823731  0.63482155     1.51690
Co3987     Co  0.57936836  0.93065288  0.67242621     1.51570
Co3988     Co  0.60179341  0.91288653  0.57525838     1.51470
O3989       O  0.58867696  0.92357633  0.61963520    -1.42840
C3990       C  0.59091752  0.85628703  0.61235550     1.08710
C3991       C  0.64706183  0.97071544  0.69352205     1.08800
C3992       C  0.53337455  0.86332181  0.68224721     1.08740
C3993       C  0.65790898  0.92727444  0.61122418     1.08710
O3994       O  0.68846245  0.65167202  0.84469144    -0.80910
O3995       O  0.64547476  0.51891707  0.88843325    -0.80930
O3996       O  0.67683307  0.55994371  0.81142139    -0.80940
O3997       O  0.60434098  0.56991613  0.90754893    -0.80880
O3998       O  0.69385379  0.53801821  0.84506516    -0.81000
O3999       O  0.63171877  0.60853002  0.87300192    -0.80920
O4000       O  0.62312723  0.54083608  0.86374052    -0.80910
O4001       O  0.67371342  0.61129719  0.81243083    -0.80950
C4002       C  0.67921528  0.63858726  0.81658043     1.08780
C4003       C  0.62236809  0.51623518  0.87261455     1.08670
C4004       C  0.68335303  0.53945574  0.81671141     1.08800
C4005       C  0.60587717  0.59048617  0.88870681     1.08680
O4006       O  0.67578072  0.65775210  0.90732641    -0.80910
O4007       O  0.73451173  0.58709154  0.89283271    -0.80990
O4008       O  0.73564730  0.64652555  0.84317364    -0.80920
O4009       O  0.63978300  0.55132289  0.93257173    -0.80900
O4010       O  0.68817497  0.56682011  0.93733762    -0.80950
O4011       O  0.72388649  0.64837492  0.89615014    -0.80920
O4012       O  0.65965337  0.61286991  0.93219027    -0.80880
O4013       O  0.73913658  0.59463578  0.83895724    -0.80950
Co4014     Co  0.67929593  0.62626237  0.88558641     1.51530
Co4015     Co  0.69034718  0.55524038  0.89040031     1.51690
Co4016     Co  0.70448285  0.60218374  0.82865252     1.51570
Co4017     Co  0.64313270  0.57754197  0.89449702     1.51470
O4018       O  0.68285280  0.58904997  0.87309324    -1.42840
C4019       C  0.66447852  0.64104719  0.93273459     1.08710
C4020       C  0.75064738  0.59387429  0.86691777     1.08800
C4021       C  0.74292053  0.65934956  0.87217088     1.08740
C4022       C  0.66164576  0.55373764  0.94984769     1.08710
O4023       O  0.53319128  0.62011809  0.67394049    -0.80910
O4024       O  0.62089226  0.70224368  0.55178491    -0.80930
O4025       O  0.52842911  0.67379798  0.59853119    -0.80940
O4026       O  0.59377683  0.61896965  0.62469793    -0.80880
O4027       O  0.56242905  0.66496790  0.57328953    -0.81000
O4028       O  0.58449914  0.61510858  0.67816946    -0.80920
O4029       O  0.62554531  0.66650710  0.57798007    -0.80910
O4030       O  0.53624325  0.62726161  0.62044226    -0.80950
C4031       C  0.52206081  0.61025493  0.64478580     1.08780
C4032       C  0.62601800  0.68000604  0.55095229     1.08670
C4033       C  0.53849044  0.66779733  0.57205627     1.08800
C4034       C  0.58761735  0.60341340  0.65115068     1.08680
O4035       O  0.62001518  0.67885392  0.70560985    -0.80910
O4036       O  0.59571720  0.72954673  0.59068945    -0.80990
O4037       O  0.53204462  0.66970227  0.66954789    -0.80920
O4038       O  0.66440899  0.70646861  0.63209453    -0.80900
O4039       O  0.64315614  0.73101880  0.61271015    -0.80950
O4040       O  0.57173116  0.68477782  0.70135301    -0.80920
O4041       O  0.63962612  0.65849126  0.67361166    -0.80880
O4042       O  0.57520493  0.71876069  0.63884278    -0.80950
Co4043     Co  0.57838037  0.65152252  0.68690569     1.51530
Co4044     Co  0.60415597  0.69526646  0.59601473     1.51690
Co4045     Co  0.55737786  0.67346454  0.62835894     1.51570
Co4046     Co  0.62717368  0.66340072  0.62816690     1.51470
O4047       O  0.59506458  0.67601420  0.64320249    -1.42840
C4048       C  0.63939033  0.67084805  0.70111552     1.08710
C4049       C  0.58668414  0.73796440  0.61563669     1.08800
C4050       C  0.54554920  0.68079193  0.69754711     1.08740
C4051       C  0.66591807  0.73169404  0.62549320     1.08710
O4052       O  0.91141251  0.93690547  0.65878653    -0.80910
O4053       O  0.84000537  0.94981290  0.55362378    -0.80930
O4054       O  0.83317751  0.86150049  0.58731680    -0.80940
O4055       O  0.87697680  0.99397986  0.63298670    -0.80880
O4056       O  0.84552858  0.90120697  0.55600952    -0.81000
O4057       O  0.89964754  0.96970997  0.61327381    -0.80920
O4058       O  0.82799813  0.97599925  0.58850895    -0.80910
O4059       O  0.88637185  0.90418665  0.61748194    -0.80950
C4060       C  0.91065278  0.91862907  0.63622277     1.08780
C4061       C  0.83583595  0.97191588  0.55952440     1.08670
C4062       C  0.84328774  0.87547577  0.55987207     1.08800
C4063       C  0.90124157  0.99501015  0.62178044     1.08680
O4064       O  0.87950415  0.96238665  0.67987416    -0.80910
O4065       O  0.78408358  0.86409920  0.58715024    -0.80990
O4066       O  0.84367641  0.85681901  0.65551586    -0.80920
O4067       O  0.78605914  0.93002982  0.63605771    -0.80900
O4068       O  0.77924083  0.91615497  0.58303568    -0.80950
O4069       O  0.85270200  0.90038666  0.67982455    -0.80920
O4070       O  0.83141295  0.94833150  0.68097062    -0.80880
O4071       O  0.79596265  0.86531110  0.64034756    -0.80950
Co4072     Co  0.87473677  0.93368757  0.64273358     1.51530
Co4073     Co  0.81392181  0.90870060  0.57257235     1.51690
Co4074     Co  0.84018932  0.88700409  0.62992663     1.51570
Co4075     Co  0.83089824  0.95958388  0.63386405     1.51470
O4076       O  0.83692264  0.92435865  0.61686144    -1.42840
C4077       C  0.85720914  0.96108923  0.69531284     1.08710
C4078       C  0.77737169  0.85235363  0.61621608     1.08800
C4079       C  0.84868100  0.87286095  0.68217105     1.08740
C4080       C  0.76911773  0.92055309  0.61042610     1.08710
C4081       C  0.93524398  0.54855196  0.64717834    -0.21080
C4082       C  0.93235331  0.52523012  0.62466860    -0.07640
C4083       C  0.95968735  0.53049117  0.60850768     0.13230
C4084       C  0.98850140  0.55816898  0.61568606    -0.21130
C4085       C  0.99126121  0.58069984  0.63912106    -0.07650
C4086       C  0.96401413  0.57589658  0.65452332     0.13210
C4087       C  0.96487549  0.60029218  0.67765112    -0.24480
H4088       H  0.91483390  0.54521483  0.65977078     0.14500
H4089       H  0.50917338  0.56213788  0.60312229     0.14530
C4090       C  0.95888143  0.50744776  0.58328509    -0.24430
H4091       H  0.94154876  0.59317765  0.68717574     0.04740
H4092       H  0.97376175  0.62238384  0.66388850     0.07970
H4093       H  0.98002696  0.60437265  0.69948515     0.07970
H4094       H  0.94202984  0.00305183  0.56311723     0.07950
H4095       H  0.95235805  0.98514449  0.59552789     0.07950
H4096       H  0.98181992  0.51633883  0.57157361     0.04730
C4097       C  0.72256471  0.76451360  0.62006880    -0.21080
C4098       C  0.69498207  0.76238476  0.62972692    -0.07640
C4099       C  0.69524204  0.79029008  0.63742618     0.13230
C4100       C  0.72241630  0.81943714  0.63260181    -0.21130
C4101       C  0.74939612  0.82137497  0.62112414    -0.07650
C4102       C  0.74971670  0.79364797  0.61552707     0.13210
C4103       C  0.77839299  0.79460697  0.60378420    -0.24480
H4104       H  0.72245126  0.74329192  0.61410578     0.14500
H4105       H  0.72252463  0.84078126  0.63778600     0.14530
C4106       C  0.66762824  0.79036633  0.65131573    -0.24430
H4107       H  0.77461714  0.77078084  0.60093749     0.04740
H4108       H  0.79738841  0.80782457  0.62216400     0.07970
H4109       H  0.78525743  0.80593743  0.57910706     0.07970
H4110       H  0.64816135  0.76671172  0.65755254     0.07950
H4111       H  0.65956500  0.80105285  0.63308441     0.07950
H4112       H  0.67440317  0.80451081  0.67483130     0.04730
C4113       C  0.65297043  0.68039560  0.76121393    -0.21080
C4114       C  0.65771178  0.67079069  0.72970369    -0.07640
C4115       C  0.67603554  0.65705200  0.72747039     0.13230
C4116       C  0.68480169  0.64910167  0.75684550    -0.21130
C4117       C  0.67613332  0.65472929  0.78809316    -0.07650
C4118       C  0.66205581  0.67252929  0.79054502     0.13210
C4119       C  0.65439384  0.68104861  0.82377617    -0.24480
H4120       H  0.64015640  0.69213315  0.76315109     0.14500
H4121       H  0.69704153  0.63672563  0.75538720     0.14530
C4122       C  0.68545304  0.64918761  0.69472895    -0.24430
H4123       H  0.64195049  0.69369065  0.82111073     0.04740
H4124       H  0.67594197  0.69626561  0.83830423     0.07970
H4125       H  0.63942339  0.65934390  0.83756022     0.07970
H4126       H  0.69688583  0.67019543  0.67879366     0.07950
H4127       H  0.66500041  0.62965761  0.68168374     0.07950
H4128       H  0.70212971  0.64146569  0.69845372     0.04730
C4129       C  0.64427257  0.63298851  0.48985836    -0.21080
C4130       C  0.65579016  0.65277598  0.96249992    -0.07640
C4131       C  0.65566481  0.68111572  0.96342825     0.13230
C4132       C  0.64499733  0.68901439  0.49218413    -0.21130
C4133       C  0.63406088  0.66932860  0.51981301    -0.07650
C4134       C  0.63315635  0.64044502  0.51810290     0.13210
C4135       C  0.62045528  0.61666700  0.54553749    -0.24480
H4136       H  0.64369690  0.61107356  0.48920986     0.14500
H4137       H  0.64563583  0.71095111  0.49325315     0.14530
C4138       C  0.66625321  0.70316973  0.93444928    -0.24430
H4139       H  0.61874982  0.59440201  0.53798279     0.04740
H4140       H  0.59679105  0.61082285  0.55227599     0.07970
H4141       H  0.63619551  0.62598702  0.56750724     0.07970
H4142       H  0.65177328  0.69099273  0.91206986     0.07950
H4143       H  0.69090969  0.71199280  0.92907562     0.07950
H4144       H  0.66424284  0.72383146  0.93979702     0.04730
C4145       C  0.62021702  0.99670667  0.01916819    -0.21080
C4146       C  0.64463044  0.00231963  0.54061015    -0.07640
C4147       C  0.67462479  0.52778666  0.53408511     0.13230
C4148       C  0.67952141  0.54540942  0.50499461    -0.21130
C4149       C  0.65514554  0.53773805  0.98231265    -0.07650
C4150       C  0.62497058  0.01281199  0.98982555     0.13210
C4151       C  0.59746353  0.00101538  0.96649517    -0.24480
H4152       H  0.59672717  0.97822292  0.02453868     0.14500
H4153       H  0.70262336  0.56459039  0.49942031     0.14530
C4154       C  0.70134400  0.53595361  0.55697893    -0.24430
H4155       H  0.57628896  0.98014664  0.97620547     0.04740
H4156       H  0.60253506  0.99381423  0.94217363     0.07970
H4157       H  0.59178499  0.01935015  0.96300179     0.07970
H4158       H  0.70480709  0.51590164  0.55832170     0.07950
H4159       H  0.69656867  0.54162400  0.58234560     0.07950
H4160       H  0.72316672  0.55658268  0.54807542     0.04730
C4161       C  0.65759550  0.48759518  0.78795974    -0.21080
C4162       C  0.68067117  0.51929620  0.78802553    -0.07640
C4163       C  0.69677613  0.53285584  0.75816791     0.13230
C4164       C  0.68703612  0.51536955  0.72819045    -0.21130
C4165       C  0.66129273  0.98458501  0.72704336    -0.07650
C4166       C  0.64773157  0.96993276  0.75793625     0.13210
C4167       C  0.62176378  0.93633589  0.75980746    -0.24480
H4168       H  0.64558270  0.47728382  0.81103596     0.14500
H4169       H  0.69851789  0.52663890  0.70522899     0.14530
C4170       C  0.72382647  0.56619944  0.75771187    -0.24430
H4171       H  0.61525698  0.92867606  0.78599295     0.04740
H4172       H  0.62869021  0.92087357  0.74771687     0.07970
H4173       H  0.60112837  0.93367863  0.74734676     0.07970
H4174       H  0.74184819  0.56903210  0.77558116     0.07950
H4175       H  0.71631910  0.58269255  0.76471400     0.07950
H4176       H  0.73446145  0.57272689  0.73258554     0.04730
C4177       C  0.58593407  0.52915281  0.67840781    -0.21080
C4178       C  0.59932529  0.52304536  0.65070003    -0.07640
C4179       C  0.60833403  0.54354687  0.62327831     0.13230
C4180       C  0.60316352  0.56850286  0.62410116    -0.21130
C4181       C  0.58929770  0.57431752  0.65140906    -0.07650
C4182       C  0.58033720  0.55393168  0.67896772     0.13210
C4183       C  0.56425891  0.55743918  0.70890825    -0.24480
H4184       H  0.57912472  0.51396686  0.69974259     0.14500
H4185       H  0.61054834  0.58395475  0.60315039     0.14530
C4186       C  0.62334037  0.53956269  0.59274288    -0.24430
H4187       H  0.55686877  0.53805592  0.72672618     0.04740
H4188       H  0.54323024  0.55718591  0.70072394     0.07970
H4189       H  0.58012773  0.57959394  0.72262518     0.07970
H4190       H  0.60709880  0.51663937  0.58063646     0.07950
H4191       H  0.64519537  0.54102377  0.59985301     0.07950
H4192       H  0.62919695  0.55792776  0.57401523     0.04730
C4193       C  0.60677925  0.79097008  0.59235871    -0.21080
C4194       C  0.58931049  0.76907360  0.61705102    -0.07640
C4195       C  0.57427330  0.77720905  0.64148048     0.13230
C4196       C  0.57645124  0.80627781  0.63980196    -0.21130
C4197       C  0.59292052  0.82765910  0.61432554    -0.07650
C4198       C  0.60878789  0.81996594  0.59060362     0.13210
C4199       C  0.62829945  0.84214900  0.56357156    -0.24480
H4200       H  0.61880970  0.78525859  0.57391854     0.14500
H4201       H  0.56418154  0.81184865  0.65807705     0.14530
C4202       C  0.55511706  0.75534122  0.66899512    -0.24430
H4203       H  0.64075043  0.83318939  0.54889708     0.04740
H4204       H  0.64585142  0.86487854  0.57503224     0.07970
H4205       H  0.61359286  0.84552515  0.54584450     0.07970
H4206       H  0.56988776  0.75056337  0.68511280     0.07950
H4207       H  0.53587888  0.73310963  0.65811033     0.07950
H4208       H  0.54467124  0.76547150  0.68527231     0.04730
C4209       C  0.72694178  0.92208005  0.58140733    -0.21080
C4210       C  0.73849323  0.91812802  0.61140652    -0.07640
C4211       C  0.72209154  0.91510310  0.64135101     0.13230
C4212       C  0.69561242  0.91747844  0.64038798    -0.21130
C4213       C  0.68511113  0.92321840  0.61050265    -0.07650
C4214       C  0.70110383  0.92523400  0.58039515     0.13210
C4215       C  0.69223405  0.93174397  0.54682748    -0.24480
H4216       H  0.73908826  0.92412866  0.55846730     0.14500
H4217       H  0.68333924  0.91536359  0.66332818     0.14530
C4218       C  0.73199497  0.90918077  0.67448195    -0.24430
H4219       H  0.70813759  0.93348360  0.52669380     0.04740
H4220       H  0.69324686  0.95440232  0.54788890     0.07970
H4221       H  0.66869919  0.91249350  0.53943049     0.07970
H4222       H  0.75440630  0.92988967  0.68250148     0.07950
H4223       H  0.73411431  0.88828436  0.67243221     0.07950
H4224       H  0.71500338  0.90480621  0.69443142     0.04730
C4225       C  0.96676711  0.94240302  0.63976974    -0.21080
C4226       C  0.93813482  0.91591852  0.63109709    -0.07640
C4227       C  0.93712411  0.88805791  0.62080881     0.13230
C4228       C  0.96451616  0.88743747  0.62160456    -0.21130
C4229       C  0.99253844  0.91330699  0.63303879    -0.07650
C4230       C  0.99375970  0.94148424  0.64093557     0.13210
C4231       C  0.52347594  0.97102159  0.65002771    -0.24480
H4232       H  0.96797504  0.96403894  0.64658127     0.14500
H4233       H  0.96359310  0.86592966  0.61485414     0.14530
C4234       C  0.90815733  0.85801520  0.61006524    -0.24430
H4235       H  0.52051986  0.99138658  0.65278420     0.04740
H4236       H  0.54056359  0.97634431  0.62995472     0.07970
H4237       H  0.53217476  0.96820957  0.67424216     0.07970
H4238       H  0.90540023  0.83842845  0.62531787     0.07950
H4239       H  0.88670413  0.85829820  0.61260997     0.07950
H4240       H  0.91035441  0.85271241  0.58353796     0.04730
C4241       C  0.98881653  0.63060894  0.49564201    -0.21080
C4242       C  0.99752904  0.65687706  0.97586832    -0.07640
C4243       C  0.51989579  0.68696593  0.98822490     0.13230
C4244       C  0.53228047  0.68988002  0.52037065    -0.21130
C4245       C  0.52292064  0.66348565  0.54002483    -0.07650
C4246       C  0.50101459  0.63354322  0.52765935     0.13210
C4247       C  0.49071932  0.60477483  0.54812113    -0.24480
H4248       H  0.97295404  0.60747469  0.48557205     0.14500
H4249       H  0.54965534  0.71279660  0.53009831     0.14530
C4250       C  0.53054763  0.71590676  0.96801809    -0.24430
H4251       H  0.97312622  0.58310314  0.53472469     0.04740
H4252       H  0.98037125  0.60665023  0.57184543     0.07970
H4253       H  0.51085485  0.60253438  0.55385967     0.07970
H4254       H  0.51041409  0.71780625  0.96117188     0.07950
H4255       H  0.54223867  0.71481256  0.94503196     0.07950
H4256       H  0.54728577  0.73747615  0.98217759     0.04730
C4257       C  0.52943444  0.68967236  0.78818034    -0.21080
C4258       C  0.99728240  0.67098519  0.78743310    -0.07640
C4259       C  0.98145697  0.66431873  0.75634657     0.13230
C4260       C  0.99833411  0.67160499  0.72663129    -0.21130
C4261       C  0.53038487  0.68494682  0.72734367    -0.07650
C4262       C  0.54640032  0.69702438  0.75845648     0.13210
C4263       C  0.58124176  0.71622055  0.76127588    -0.24480
H4264       H  0.54138305  0.69579435  0.81206913     0.14920
H4265       H  0.98613991  0.66447854  0.70294624     0.14530
C4266       C  0.94669234  0.64863506  0.75416167    -0.24430
H4267       H  0.58893073  0.72703904  0.78655645     0.04740
H4268       H  0.59077745  0.73547873  0.74301771     0.07970
H4269       H  0.59114488  0.70129773  0.75711387     0.07970
H4270       H  0.93913333  0.66263852  0.76824129     0.07950
H4271       H  0.93489094  0.62472033  0.76425670     0.07950
H4272       H  0.93869069  0.64649338  0.72792202     0.04730
C4273       C  0.83289296  0.99697730  0.97166800    -0.21080
C4274       C  0.85999438  0.52673598  0.97111551    -0.07640
C4275       C  0.87589680  0.54014971  0.50203094     0.13230
C4276       C  0.86535699  0.52282515  0.53152628    -0.21130
C4277       C  0.83992997  0.99227832  0.53117622    -0.07650
C4278       C  0.82286970  0.97954706  0.00113315     0.13210
C4279       C  0.79421731  0.94726564  0.99996630    -0.24480
H4280       H  0.82019412  0.98660990  0.94862277     0.14500
H4281       H  0.87853514  0.53222705  0.55451580     0.14530
C4282       C  0.90538351  0.57166724  0.50433773    -0.24430
H4283       H  0.78322528  0.94123557  0.97481579     0.04740
H4284       H  0.77717243  0.94626745  0.51803096     0.07970
H4285       H  0.79990638  0.92939028  0.00627918     0.07970
H4286       H  0.90136613  0.59019765  0.49578594     0.07950
H4287       H  0.92312546  0.57099171  0.98886192     0.07950
H4288       H  0.91463099  0.57792961  0.53025911     0.04730
C4289       C  0.84910767  0.49380049  0.77928148    -0.21080
C4290       C  0.87863442  0.52112713  0.78176454    -0.07640
C4291       C  0.90088930  0.52687138  0.75633292     0.13230
C4292       C  0.89288836  0.50543566  0.73023843    -0.21130
C4293       C  0.86325518  0.97912575  0.72684559    -0.07650
C4294       C  0.84094033  0.47292151  0.75173166     0.13210
C4295       C  0.80884804  0.94433591  0.74966297    -0.24480
H4296       H  0.83217978  0.48914908  0.79844155     0.14500
H4297       H  0.90987489  0.01029449  0.71105075     0.14530
C4298       C  0.93326522  0.55571720  0.75476039    -0.24430
H4299       H  0.79502584  0.44230719  0.77208473     0.04740
H4300       H  0.81019605  0.92297691  0.74774183     0.07970
H4301       H  0.79646029  0.94560860  0.72755735     0.07970
H4302       H  0.94688252  0.55827063  0.77743813     0.07950
H4303       H  0.93191746  0.57685886  0.75138969     0.07950
H4304       H  0.94678408  0.55482613  0.73338660     0.04730
C4305       C  0.52346056  0.57436286  0.89260418    -0.21080
C4306       C  0.52848501  0.60424411  0.88780348    -0.07640
C4307       C  0.55882925  0.62942410  0.88164658     0.13230
C4308       C  0.58340820  0.62400325  0.88109011    -0.21130
C4309       C  0.57851238  0.59404412  0.88604052    -0.07650
C4310       C  0.54785043  0.56892029  0.89230320     0.13210
C4311       C  0.54017946  0.53620072  0.89926650    -0.24480
H4312       H  0.50015570  0.55511600  0.89745921     0.14500
H4313       H  0.60676064  0.64366873  0.87891153     0.14530
C4314       C  0.56569367  0.66227011  0.87752651    -0.24430
H4315       H  0.51484060  0.51929194  0.90073300     0.04740
H4316       H  0.55039321  0.53555362  0.92346918     0.07970
H4317       H  0.54917568  0.52832317  0.87882985     0.07970
H4318       H  0.55793680  0.66955361  0.89995991     0.07950
H4319       H  0.55353206  0.66333872  0.85507672     0.07950
H4320       H  0.59082446  0.67928581  0.87429076     0.04730
C4321       C  0.80017762  0.60756954  0.83960190    -0.21080
C4322       C  0.78198501  0.59796441  0.86850876    -0.07640
C4323       C  0.79324599  0.59025143  0.89701079     0.13230
C4324       C  0.82066700  0.58987060  0.89462568    -0.21130
C4325       C  0.83743125  0.59691005  0.86479725    -0.07650
C4326       C  0.82765045  0.60729354  0.83728386     0.13210
C4327       C  0.84557519  0.61801972  0.80512024    -0.24480
H4328       H  0.79237513  0.61449887  0.81810082     0.14500
H4329       H  0.82843508  0.58284109  0.91606981     0.14530
C4330       C  0.77647060  0.58144014  0.92996413    -0.24430
H4331       H  0.83539251  0.62715130  0.78751759     0.04740
H4332       H  0.84535372  0.59815619  0.79222601     0.07970
H4333       H  0.86972991  0.63721069  0.81042235     0.07970
H4334       H  0.75345996  0.55966028  0.92693477     0.07950
H4335       H  0.77386372  0.60084516  0.93948487     0.07950
H4336       H  0.78926258  0.57696018  0.94932094     0.04730
C4337       C  0.52381698  0.85270099  0.96711504    -0.21080
C4338       C  0.99177629  0.83916137  0.96742823    -0.07640
C4339       C  0.97564083  0.82914088  0.49822929     0.13230
C4340       C  0.99238738  0.83615981  0.52820687    -0.21130
C4341       C  0.52464009  0.85319616  0.52807029    -0.07650
C4342       C  0.54055798  0.86006830  0.99716828     0.13210
C4343       C  0.57530040  0.87580109  0.99572655    -0.24480
H4344       H  0.53596047  0.85961404  0.94353712     0.14500
H4345       H  0.98036513  0.83057198  0.55187892     0.14530
C4346       C  0.94076135  0.81151908  0.49990938    -0.24430
H4347       H  0.58348214  0.87732792  0.96967262     0.04740
H4348       H  0.58272442  0.86213831  0.01019684     0.07970
H4349       H  0.58673880  0.90002164  0.50600593     0.07970
H4350       H  0.93079786  0.79042710  0.98340822     0.07950
H4351       H  0.93190799  0.82660011  0.49237520     0.07950
H4352       H  0.93235231  0.80359884  0.52563023     0.04730
C4353       C  0.96655820  0.83724341  0.74408265    -0.21080
C4354       C  0.98155347  0.86002384  0.76945014    -0.07640
C4355       C  0.51292549  0.88369809  0.76545625     0.13230
C4356       C  0.52841023  0.88369721  0.73666278    -0.21130
C4357       C  0.51404958  0.86067509  0.71152703    -0.07650
C4358       C  0.98222393  0.83750569  0.71484892     0.13210
C4359       C  0.96448087  0.81318350  0.68800158    -0.24480
H4360       H  0.94243720  0.81916939  0.74720470     0.14500
H4361       H  0.55229202  0.90212035  0.73387513     0.14530
C4362       C  0.53105771  0.90823406  0.79199499    -0.24430
H4363       H  0.93996956  0.79702751  0.69508919     0.04740
H4364       H  0.97509232  0.79893075  0.68352386     0.07970
H4365       H  0.96450362  0.82478802  0.66460178     0.07970
H4366       H  0.53204699  0.89675877  0.81490656     0.07950
H4367       H  0.52031237  0.92219725  0.79707861     0.07950
H4368       H  0.55531830  0.92484117  0.78441392     0.04730
C4369       C  0.93487782  0.96537120  0.84606426    -0.21080
C4370       C  0.92567043  0.94259380  0.87067976    -0.07640
C4371       C  0.91757211  0.94850842  0.90270557     0.13230
C4372       C  0.91743837  0.97608559  0.90858343    -0.21130
C4373       C  0.92481144  0.99770352  0.88325391    -0.07650
C4374       C  0.93457532  0.99276449  0.85194564     0.13210
C4375       C  0.94504481  0.01643644  0.82472513    -0.24480
H4376       H  0.94176741  0.96149110  0.82170850     0.14500
H4377       H  0.91048089  0.98028879  0.93275375     0.14530
C4378       C  0.90930975  0.92629097  0.93099653    -0.24430
H4379       H  0.95368836  0.00973302  0.80259209     0.04740
H4380       H  0.96395738  0.53961486  0.83411778     0.07970
H4381       H  0.92523521  0.01809845  0.81646015     0.07970
H4382       H  0.92834188  0.92192129  0.93509868     0.07950
H4383       H  0.88738578  0.90413826  0.92501031     0.07950
H4384       H  0.90576630  0.93576405  0.95471334     0.04730
C4385       C  0.90843138  0.68917252  0.90118466    -0.21080
C4386       C  0.92760214  0.68841825  0.87625101    -0.07640
C4387       C  0.94572289  0.71503798  0.85656524     0.13230
C4388       C  0.94347600  0.74120247  0.86147604    -0.21130
C4389       C  0.92412955  0.74216255  0.88586778    -0.07650
C4390       C  0.90647131  0.71594680  0.90628979     0.13210
C4391       C  0.88511852  0.71576060  0.93256568    -0.24480
H4392       H  0.89484542  0.66873670  0.91640464     0.14500
H4393       H  0.95779542  0.76161502  0.84646215     0.14530
C4394       C  0.96897382  0.71714657  0.83151393    -0.24430
H4395       H  0.87210056  0.69282181  0.94512665     0.04740
H4396       H  0.86812220  0.72043092  0.92094126     0.07970
H4397       H  0.89866723  0.73395772  0.95194494     0.07970
H4398       H  0.95736697  0.69896263  0.81176729     0.07950
H4399       H  0.48680450  0.71469478  0.84449223     0.07950
H4400       H  0.48122226  0.74006955  0.81884804     0.04730
C4401       C  0.56621588  0.98547018  0.85873452    -0.21080
C4402       C  0.59242143  0.98509564  0.86913327    -0.07640
C4403       C  0.58790853  0.95598022  0.87958101     0.13230
C4404       C  0.55753182  0.92981258  0.88291362    -0.21130
C4405       C  0.53124876  0.93114127  0.87493267    -0.07650
C4406       C  0.53602744  0.95948176  0.86192915     0.13210
C4407       C  0.50968818  0.96248613  0.84980558    -0.24480
H4408       H  0.56933947  0.50658731  0.84805508     0.14500
H4409       H  0.55438347  0.90781270  0.89105571     0.14530
C4410       C  0.61410313  0.95071747  0.88586626    -0.24430
H4411       H  0.51769458  0.98595180  0.83955224     0.04740
H4412       H  0.99383260  0.95880791  0.87074198     0.07970
H4413       H  0.99738032  0.94525804  0.82934383     0.07970
H4414       H  0.61620935  0.94811653  0.91303508     0.07950
H4415       H  0.63650182  0.96940314  0.87598001     0.07950
H4416       H  0.60923637  0.92890983  0.87270192     0.04730
C4417       C  0.80403886  0.74375026  0.89353167    -0.21080
C4418       C  0.83016700  0.74675415  0.87800799    -0.07640
C4419       C  0.82759451  0.72072371  0.86062285     0.13230
C4420       C  0.79911860  0.69211066  0.86037200    -0.21130
C4421       C  0.77303998  0.68899912  0.87652377    -0.07650
C4422       C  0.77553026  0.71538373  0.89302472     0.13210
C4423       C  0.74800384  0.71450204  0.90853041    -0.24480
H4424       H  0.80574798  0.76414556  0.90522510     0.14500
H4425       H  0.79714476  0.67215488  0.84699779     0.14530
C4426       C  0.85402624  0.72220867  0.84184967    -0.24430
H4427       H  0.75405462  0.73770401  0.91897793     0.04740
H4428       H  0.73891095  0.69766752  0.92930882     0.07970
H4429       H  0.72976067  0.70760680  0.88926351     0.07970
H4430       H  0.85983491  0.70572847  0.85288259     0.07950
H4431       H  0.87493361  0.74593111  0.84218548     0.07950
H4432       H  0.84718512  0.71533455  0.81532705     0.04730
C4433       C  0.83062609  0.83930582  0.01115592    -0.21080
C4434       C  0.85310876  0.86358272  0.53167714    -0.07640
C4435       C  0.88377479  0.88171246  0.52013387     0.13230
C4436       C  0.89135310  0.87471570  0.48912939    -0.21130
C4437       C  0.86903832  0.85122137  0.96778289    -0.07650
C4438       C  0.83824645  0.83290101  0.97924188     0.13210
C4439       C  0.81381612  0.80599152  0.95877074    -0.24480
H4440       H  0.80686195  0.82616064  0.01955805     0.14500
H4441       H  0.91524353  0.88835960  0.48128777     0.14530
C4442       C  0.90879829  0.90913294  0.54000366    -0.24430
H4443       H  0.79102514  0.79418332  0.97141585     0.04740
H4444       H  0.82080437  0.78859575  0.95513145     0.07970
H4445       H  0.81106444  0.81435056  0.93428292     0.07970
H4446       H  0.91188863  0.90094310  0.56421064     0.07950
H4447       H  0.90276521  0.92721181  0.54419080     0.07950
H4448       H  0.93145263  0.92056684  0.52708652     0.04730
C4449       C  0.86873918  0.83665985  0.75368547    -0.21080
C4450       C  0.86363454  0.85063745  0.78159048    -0.07640
C4451       C  0.85051230  0.86916795  0.77667307     0.13230
C4452       C  0.84394675  0.87412417  0.74402970    -0.21130
C4453       C  0.85031904  0.86131767  0.71586113    -0.07650
C4454       C  0.86220981  0.84163906  0.72099422     0.13210
C4455       C  0.87036455  0.82772695  0.69221399    -0.24480
H4456       H  0.87911015  0.82273988  0.75743369     0.14500
H4457       H  0.83496730  0.88929590  0.74042614     0.14530
C4458       C  0.84540862  0.88562490  0.80549949    -0.24430
H4459       H  0.88008742  0.81363111  0.70074409     0.04740
H4460       H  0.88809327  0.84693159  0.67680690     0.07970
H4461       H  0.84943195  0.81215242  0.67693761     0.07970
H4462       H  0.86764882  0.90131277  0.81872990     0.07950
H4463       H  0.82852558  0.86813529  0.82312850     0.07950
H4464       H  0.83613010  0.90014010  0.79703581     0.04730
loop_ 
_geom_bond_atom_site_label_1 
_geom_bond_atom_site_label_2 
_geom_bond_distance 
_geom_bond_site_symmetry_2 
_ccdc_geom_bond_type 
O1            C9   1.265       .  A
O1          Co21   1.889       .  S
O2           C10   1.246       .  A
O2          Co22   1.932       .  S
O3           C11   1.268       .  A
O3          Co23   2.055       .  S
O4           C12   1.279       .  A
O4          Co24   2.030       .  S
O5           C11   1.245       .  A
O5          Co22   1.934       .  S
O6           C12   1.274       .  A
O6          Co21   1.989       .  S
O7           C10   1.273       .  A
O7          Co24   2.050       .  S
O8            C9   1.293       .  A
O8          Co23   2.097       .  S
C9          C464   1.485       .  S
C10         C432   1.475       .  S
C11         C531   1.491       .  S
C12        C2731   1.503       .  S
O13          C26   1.260       .  A
O13         Co21   2.003       .  S
O14          C27   1.277       .  A
O14         Co22   2.026       .  S
O15          C28   1.270       .  A
O15         Co23   1.913       .  S
O16          C29   1.256       .  A
O16         Co24   1.938       .  S
O17          C29   1.270       .  A
O17         Co22   2.027       .  S
O18          C28   1.294       .  A
O18         Co21   2.094       .  S
O19          C26   1.255       .  A
O19         Co24   1.978       .  S
O20          C27   1.267       .  A
O20         Co23   1.976       .  S
Co21         O25   2.003       .  S
Co22         O25   2.010       .  S
Co23         O25   2.028       .  S
Co24         O25   2.030       .  S
C26         C448   1.477       .  S
C27         C512   1.476       .  S
C28         C544   1.488       .  S
C29         C483   1.473       .  S
O30          C38   1.248       .  A
O30         Co50   1.939       .  S
O31          C39   1.250       .  A
O31         Co51   1.997       .  S
O32          C40   1.250   1_655  A
O32       Co2284   1.972       .  S
O33          C41   1.282       .  A
O33         Co53   2.051       .  S
O34        C2272   1.258       .  A
O34         Co51   1.990       .  S
O35          C41   1.248       .  A
O35         Co50   1.913       .  S
O36          C39   1.240       .  A
O36         Co53   1.960       .  S
O37          C38   1.269       .  A
O37         Co52   2.032       .  S
C38         C352   1.472       .  S
C39        C1583   1.473   1_545  S
C40        O2266   1.258   1_455  A
C40         C400   1.481       .  S
C41         C384   1.491       .  S
O42          C55   1.259       .  A
O42         Co50   1.994       .  S
O43          C56   1.286       .  A
O43         Co51   2.024       .  S
O44          C57   1.256       .  A
O44         Co52   1.985       .  S
O45          C58   1.282       .  A
O45         Co53   1.940       .  S
O46          C58   1.287       .  A
O46         Co51   2.036       .  S
O47          C57   1.266       .  A
O47         Co50   2.005       .  S
O48          C55   1.260       .  A
O48         Co53   1.994       .  S
O49          C56   1.275       .  A
O49         Co52   1.931       .  S
Co50         O54   2.053       .  S
Co51         O54   2.225       .  S
Co52       O2264   1.972       .  S
Co52         O54   1.974       .  S
Co53         O54   1.950       .  S
C55         C419   1.493       .  S
C56         C336   1.478       .  S
C57         C480   1.467       .  S
C58         C368   1.501       .  S
O59          C67   1.253       .  A
O59         Co79   1.972       .  S
O60          C68   1.280       .  A
O60         Co80   2.046       .  S
O61          C69   1.251       .  A
O61         Co81   2.003       .  S
O62          C70   1.248       .  A
O62         Co82   1.944       .  S
O63          C69   1.247       .  A
O63         Co80   1.992       .  S
O64          C70   1.267       .  A
O64         Co79   2.030       .  S
O65          C68   1.256       .  A
O65         Co82   1.912       .  S
O66          C67   1.260       .  A
O66         Co81   1.994       .  S
C67        C2555   1.483   1_455  S
C68         C240   1.488       .  S
C69        C1388   1.509       .  S
C70         C435   1.472       .  S
O71          C84   1.259       .  A
O71         Co79   1.983       .  S
O72          C85   1.282       .  A
O72         Co80   1.913       .  S
O73          C86   1.288       .  A
O73         Co81   2.020       .  S
O74          C87   1.256       .  A
O74         Co82   1.981       .  S
O75          C87   1.263       .  A
O75         Co80   2.007       .  S
O76          C86   1.274       .  A
O76         Co79   1.938       .  S
O77          C84   1.270       .  A
O77         Co82   2.028       .  S
O78          C85   1.298       .  A
O78         Co81   2.065       .  S
Co79         O83   1.992       .  S
Co80         O83   1.949       .  S
Co81         O83   2.228       .  S
Co82         O83   2.056       .  S
C84         C291   1.495       .  S
C85         C259   1.502       .  S
C86         C451   1.489       .  S
C87         C307   1.497       .  S
O88          C96   1.255       .  A
O88        Co108   1.991       .  S
O89          C97   1.277       .  A
O89        Co109   2.040       .  S
O90          C98   1.255       .  A
O90        Co110   1.944       .  S
O91          C99   1.257       .  A
O91        Co111   1.873       .  S
O92          C98   1.275       .  A
O92        Co109   2.045       .  S
O93          C99   1.306       .  A
O93        Co108   2.149       .  S
O94          C97   1.271       .  A
O94        Co111   1.979       .  S
O95          C96   1.254       .  A
O95        Co110   1.958       .  S
C96         C211   1.464       .  S
C97        C1612   1.509   1_545  S
C98         C256   1.477       .  S
C99         C403   1.494       .  S
O100        C113   1.260       .  A
O100       Co108   1.880       .  S
O101        C114   1.256       .  A
O101       Co109   1.957       .  S
O102        C115   1.276       .  A
O102       Co110   2.016       .  S
O103        C116   1.259       .  A
O103       Co111   1.978       .  S
O104        C116   1.255       .  A
O104       Co109   1.978       .  S
O105        C115   1.270       .  A
O105       Co108   1.973       .  S
O106        C113   1.302       .  A
O106       Co111   2.118       .  S
O107        C114   1.275       .  A
O107       Co110   2.028       .  S
Co108       O112   2.022       .  S
Co109       O112   2.053       .  S
Co110       O112   2.019       .  S
Co111       O112   1.979       .  S
C113        C224   1.486       .  S
C114        C416   1.495       .  S
C115        C515   1.480       .  S
C116        C243   1.482       .  S
O117        C125   1.273       .  A
O117       Co137   2.051       .  S
O118        C126   1.271       .  A
O118       Co138   1.919       .  S
O119        C127   1.274       .  A
O119       Co139   1.903       .  S
O120        C128   1.264       .  A
O120       Co140   1.973       .  S
O121        C127   1.296       .  A
O121       Co138   2.054       .  S
O122        C128   1.271       .  A
O122       Co137   2.032       .  S
O123        C126   1.279       .  A
O123       Co140   2.024       .  S
O124        C125   1.255       .  A
O124       Co139   1.999       .  S
C125       C2411   1.502   1_455  S
C126        C227   1.488       .  S
C127        C339   1.461       .  S
C128        C275   1.506       .  S
O129        C142   1.253       .  A
O129       Co137   1.961       .  S
O130        C143   1.254       .  A
O130       Co138   1.992       .  S
O131        C144   1.273       .  A
O131       Co139   2.038       .  S
O132        C145   1.259       .  A
O132       Co140   1.994       .  S
O133        C145   1.249       .  A
O133       Co138   1.957       .  S
O134        C144   1.245       .  A
O134       Co137   1.946       .  S
O135        C142   1.258       .  A
O135       Co140   1.989       .  S
O136        C143   1.252       .  A
O136       Co139   1.994       .  S
Co137       O141   2.064       .  S
Co138       O141   2.074       .  S
Co139       O141   1.943       .  S
Co140       O141   2.117       .  S
C142        C208   1.478       .  S
C143        C288   1.495       .  S
C144        C355   1.488       .  S
C145        C192   1.479       .  S
O146        C154   1.263       .  A
O146       Co166   1.895       .  S
O147        C155   1.252       .  A
O147       Co167   1.940       .  S
O148        C156   1.268       .  A
O148       Co168   2.033       .  S
O149        C157   1.285       .  A
O149       Co169   2.055       .  S
O150        C156   1.247       .  A
O150       Co167   1.942       .  S
O151        C157   1.270       .  A
O151       Co166   1.980       .  S
O152        C155   1.274       .  A
O152       Co169   2.043       .  S
O153        C154   1.288       .  A
O153       Co168   2.092       .  S
C154        C320   1.484       .  S
C155        C371   1.479       .  S
C156        C528   1.472       .  S
C157       C1292   1.514       .  S
O158        C171   1.260       .  A
O158       Co166   1.978       .  S
O159        C172   1.276       .  A
O159       Co167   2.031       .  S
O160        C173   1.270       .  A
O160       Co168   1.925       .  S
O161        C174   1.257       .  A
O161       Co169   1.963       .  S
O162        C174   1.274       .  A
O162       Co167   2.023       .  S
O163        C173   1.291       .  A
O163       Co166   2.088       .  S
O164        C171   1.252       .  A
O164       Co169   1.982       .  S
O165        C172   1.261       .  A
O165       Co168   1.961       .  S
Co166       O170   2.008       .  S
Co167       O170   2.033       .  S
Co168       O170   2.042       .  S
Co169       O170   2.051       .  S
C171        C387   1.477       .  S
C172        C195   1.472       .  S
C173        C547   1.496       .  S
C174        C304   1.495       .  S
C175        C176   1.411       .  A
C175        C180   1.411       .  A
C175        H182   1.083       .  S
C176       C1273   1.514   1_545  S
C176        C177   1.425       .  A
C177        C178   1.418       .  A
C177        C184   1.507       .  S
C178        C179   1.407       .  A
C178       H2415   1.084       .  S
C179       C2357   1.502       .  S
C179        C180   1.415       .  A
C180        C181   1.505       .  S
C181        H185   1.111       .  S
C181        H186   1.109       .  S
C181        H187   1.110       .  S
H183       C2410   1.084   1_455  S
C184        H190   1.111       .  S
C184       H1304   1.110       .  S
C184       H1305   1.109   1_545  S
H188       C1300   1.110       .  S
H189       C1300   1.109       .  S
C191        C192   1.401       .  A
C191        C196   1.402       .  A
C191        H198   1.084       .  S
C192        C193   1.422       .  A
C193        C194   1.404       .  A
C193        C200   1.508       .  S
C194        C195   1.398       .  A
C194        H199   1.084       .  S
C195        C196   1.414       .  A
C196        C197   1.505       .  S
C197        H201   1.111       .  S
C197        H202   1.109       .  S
C197        H203   1.109       .  S
C200        H204   1.107       .  S
C200        H205   1.110       .  S
C200        H206   1.111       .  S
C207        C208   1.408       .  A
C207        C212   1.399       .  A
C207        H214   1.084       .  S
C208        C209   1.420       .  A
C209        C210   1.394       .  A
C209        C216   1.510       .  S
C210        C211   1.398       .  A
C210        H215   1.085       .  S
C211        C212   1.408       .  A
C212        C213   1.503       .  S
C213        H217   1.111       .  S
C213        H218   1.110       .  S
C213        H219   1.103       .  S
C216        H220   1.110       .  S
C216        H221   1.110       .  S
C216        H222   1.111       .  S
C223        C228   1.393   1_556  A
C223        C782   1.397       .  A
C223        H230   1.084       .  S
C224        C225   1.425       .  A
C224        C781   1.397       .  A
C225        C784   1.408       .  A
C225        C232   1.508       .  S
C226        C227   1.402   1_556  A
C226        C783   1.408       .  A
C226        H231   1.084       .  S
C227        C228   1.426       .  A
C228        C229   1.509       .  S
C229        H233   1.111       .  S
C229        H234   1.110       .  S
C229        H235   1.109       .  S
C232        H236   1.110       .  S
C232        H237   1.109       .  S
C232        H238   1.111       .  S
C239        C244   1.384       .  A
C239        C798   1.409       .  A
C239        H246   1.084       .  S
C240        C797   1.409       .  A
C240       C1357   1.410       .  A
C241        C242   1.415       .  A
C241       C1356   1.410       .  A
C241        C248   1.503       .  S
C242        C801   1.414   1_554  A
C242        H247   1.083   1_554  S
C243        C800   1.414       .  A
C243       C1360   1.415       .  A
C244       C1359   1.415       .  A
C244        C245   1.515       .  S
C245        H249   1.111       .  S
C245        H250   1.109       .  S
C245        H251   1.109       .  S
C248        H252   1.110       .  S
C248        H253   1.111       .  S
C248        H254   1.111       .  S
C255        C256   1.396   1_565  A
C255       C1376   1.409       .  A
C255        H262   1.084       .  S
C256        C257   1.414       .  A
C257        C258   1.404       .  A
C257        C264   1.509       .  S
C258       C1375   1.406   1_545  A
C258        H263   1.083       .  S
C259        C260   1.428       .  A
C259       C1374   1.406       .  A
C260       C1371   1.409       .  A
C260        C261   1.503       .  S
C261        H265   1.111       .  S
C261        H266   1.110       .  S
C261        H267   1.104       .  S
C264        H268   1.110       .  S
C264        H269   1.109       .  S
C264        H270   1.111       .  S
C271        C272   1.411       .  A
C271        C276   1.412       .  A
C271        H278   1.083       .  S
C272       C1185   1.509   1_545  S
C272        C273   1.419       .  A
C273        C274   1.407       .  A
C273        C280   1.504       .  S
C274        C275   1.406       .  A
C274        H279   1.077       .  S
C275        C276   1.420       .  A
C276        C277   1.508       .  S
C277        H281   1.111       .  S
C277        H282   1.111       .  S
C277        H283   1.109       .  S
C280        H284   1.108       .  S
C280        H285   1.110       .  S
C280        H286   1.110       .  S
C287        C288   1.407       .  A
C287        C292   1.407       .  A
C287        H294   1.084       .  S
C288        C289   1.420       .  A
C289        C290   1.406       .  A
C289        C296   1.509       .  S
C290        C291   1.407       .  A
C290        H295   1.084       .  S
C291        C292   1.418       .  A
C292        C293   1.506       .  S
C293        H297   1.111       .  S
C293        H298   1.107       .  S
C293        H299   1.109       .  S
C296        H300   1.110       .  S
C296        H301   1.110       .  S
C296        H302   1.111       .  S
C303        C304   1.400       .  A
C303        C308   1.401       .  A
C303        H310   1.081       .  S
C304        C305   1.422       .  A
C305        C306   1.411       .  A
C305        C312   1.508       .  S
C306        C307   1.405       .  A
C306        H311   1.083       .  S
C307        C308   1.427       .  A
C308        C309   1.513       .  S
C309        H313   1.111       .  S
C309        H314   1.111       .  S
C309        H315   1.110       .  S
C312        H316   1.109       .  S
C312        H317   1.110       .  S
C312        H318   1.111       .  S
C319        C320   1.401       .  A
C319        C324   1.396       .  A
C319        H326   1.085       .  S
C320        C321   1.425       .  A
C321        C322   1.407       .  A
C321        C328   1.510       .  S
C322        C323   1.403       .  A
C322        H327   1.085       .  S
C323       C2299   1.483       .  S
C323        C324   1.413       .  A
C324       C2557   1.499       .  S
C325       C2556   1.499   1_455  S
C325        H329   1.111       .  S
C325        H330   1.109       .  S
C325        H331   1.108       .  S
C328        H332   1.110       .  S
C328        H333   1.101       .  S
C328        H334   1.110       .  S
C335        C894   1.407       .  A
C335       C2572   1.397   1_556  A
C335        H342   1.080       .  S
C336        C893   1.407       .  A
C336       C2569   1.413       .  A
C337       C2568   1.413   1_455  A
C337        C896   1.406       .  A
C337        C344   1.506       .  S
C338        C339   1.404       .  A
C338        C895   1.406   1_554  A
C338        H343   1.085       .  S
C339        C340   1.403       .  A
C340       C2567   1.397   1_454  A
C340        C341   1.507   1_455  S
C341        H347   1.110   1_655  S
C341       H2577   1.111       .  S
C341       H2578   1.111       .  S
C344        H348   1.110       .  S
C344        H349   1.110       .  S
C344        H350   1.111       .  S
H345       C2573   1.111       .  S
H346       C2573   1.111       .  S
C351        C356   1.403       .  A
C351       C2584   1.393   1_455  A
C351        H358   1.085       .  S
C352        C353   1.421       .  A
C352       C2583   1.393       .  A
C353        C354   1.401       .  A
C353        C360   1.511       .  S
C354       C2587   1.398       .  A
C354        H359   1.082       .  S
C355        C356   1.430       .  A
C355       C2586   1.398   1_455  A
C356        C357   1.510       .  S
C357        H361   1.111       .  S
C357        H362   1.110       .  S
C357        H363   1.109       .  S
C360        H364   1.108       .  S
C360        H365   1.106       .  S
C360        H366   1.111       .  S
C367        C372   1.407       .  A
C367       C1484   1.404       .  A
C367        H374   1.084       .  S
C368       C1483   1.404   1_545  A
C368        C927   1.431       .  A
C369        C370   1.407       .  A
C369        C926   1.431   1_554  A
C369        C376   1.505       .  S
C370       C1487   1.393   1_545  A
C370        H375   1.085       .  S
C371       C1486   1.393       .  A
C371        C930   1.417       .  A
C372        C929   1.417       .  A
C372        C373   1.507       .  S
C373        H377   1.111       .  S
C373        H379   1.109       .  S
C373        H936   1.107       .  S
C376        H380   1.110   1_554  S
C376        H382   1.111       .  S
C376        H939   1.106   1_554  S
H378        C931   1.107   1_554  S
H381        C934   1.106       .  S
C383        C384   1.407   1_565  A
C383        C388   1.413       .  A
C383        H390   1.083       .  S
C384        C385   1.435       .  A
C385        C386   1.386       .  A
C385        C392   1.520       .  S
C386       C1503   1.392   1_545  A
C386       H1507   1.084       .  S
C387       C1502   1.392       .  A
C387       C1504   1.417       .  A
C388       C1503   1.417       .  A
C388       C1505   1.505       .  S
C389       C1504   1.505       .  S
C389        H394   1.110       .  S
C389        H395   1.109       .  S
C389       H1509   1.111       .  S
H391       C1502   1.084       .  S
C392        H396   1.107       .  S
C392        H397   1.108       .  S
C392        H398   1.110       .  S
H393       C1505   1.111       .  S
C399        C400   1.399       .  A
C399        C404   1.400       .  A
C399        H406   1.085       .  S
C400        C401   1.413       .  A
C401        C402   1.409       .  A
C401        C408   1.507       .  S
C402        C403   1.406       .  A
C402        H407   1.078       .  S
C403        C404   1.423       .  A
C404        C405   1.506       .  S
C405        H409   1.111       .  S
C405        H410   1.109       .  S
C405        H411   1.100       .  S
C408        H412   1.111       .  S
C408        H413   1.110       .  S
C408        H414   1.111       .  S
C415        C416   1.404       .  A
C415        C420   1.404       .  A
C415        H422   1.084       .  S
C416        C417   1.424       .  A
C417        C418   1.405       .  A
C417        C424   1.510       .  S
C418        C419   1.403       .  A
C418        H423   1.084       .  S
C419        C420   1.423       .  A
C420        C421   1.510       .  S
C421        H425   1.111       .  S
C421        H426   1.110       .  S
C421        H427   1.111       .  S
C424        H428   1.110       .  S
C424        H429   1.110       .  S
C424        H430   1.111       .  S
C431        C436   1.403       .  A
C431       C2664   1.396   1_455  A
C431        H438   1.084       .  S
C432       C2663   1.396       .  A
C432        C991   1.424       .  A
C433        C434   1.402   1_556  A
C433        C990   1.424       .  A
C433        C440   1.510       .  S
C434       C2667   1.394       .  A
C434        H439   1.084       .  S
C435       C2666   1.394   1_455  A
C435        C994   1.421   1_554  A
C436        C993   1.421       .  A
C436        C437   1.509       .  S
C437        H441   1.111       .  S
C437        H442   1.110       .  S
C437       H1001   1.109       .  S
C440        H445   1.109       .  S
C440        H446   1.111   1_556  S
C440       H1002   1.109       .  S
H443        C995   1.109   1_554  S
H444        C998   1.109       .  S
C447        C448   1.405       .  A
C447        C452   1.410       .  A
C447        H454   1.085       .  S
C448       C2681   1.412       .  A
C449        C450   1.394       .  A
C449       C2680   1.412   1_455  A
C449        C456   1.506       .  S
C450        C451   1.401       .  A
C450        H455   1.079       .  S
C451       C2684   1.419   1_455  A
C452       C2683   1.419       .  A
C452        C453   1.506       .  S
C453        H457   1.111       .  S
C453        H458   1.110       .  S
C453        H459   1.111       .  S
C456        H460   1.106       .  S
C456        H461   1.106       .  S
C456        H462   1.111       .  S
C463        C464   1.403       .  A
C463        C468   1.398       .  A
C463        H470   1.084       .  S
C464        C465   1.419       .  A
C465        C466   1.403       .  A
C465        C472   1.500       .  S
C466        C467   1.397       .  A
C466        H471   1.084       .  S
C467       C1155   1.473       .  S
C467        C468   1.412       .  A
C468        C469   1.502       .  S
C469        H473   1.111       .  S
C469        H475   1.104       .  S
C469       H1590   1.111       .  S
C472        H476   1.110       .  S
C472        H477   1.108       .  S
C472        H478   1.111       .  S
H474       C1585   1.111       .  S
C479        C480   1.406       .  A
C479        C484   1.409       .  A
C479        H486   1.084       .  S
C480        C481   1.412       .  A
C481        C482   1.386       .  A
C481        C488   1.509       .  S
C482        C483   1.401       .  A
C482        H487   1.084       .  S
C483        C484   1.413       .  A
C484        C485   1.505       .  S
C485        H489   1.111       .  S
C485        H490   1.110       .  S
C485        H491   1.110       .  S
C488        H492   1.105       .  S
C488       H2725   1.107       .  S
C488       H2726   1.111       .  S
H493       C2720   1.107       .  S
H494       C2720   1.111       .  S
C495        C496   1.404       .  A
C495        C500   1.405       .  A
C495       H1618   1.081       .  S
C496       C1213   1.509       .  S
C496        C497   1.424       .  A
C497        C498   1.415       .  A
C497        C504   1.507       .  S
C498        C499   1.408       .  A
C498        H503   1.084       .  S
C499       C2244   1.503   1_455  S
C499        C500   1.419       .  A
C500        C501   1.504       .  S
C501        H505   1.110       .  S
C501       H2738   1.109   1_455  S
C501       H2739   1.106   1_455  S
H502       C1611   1.081   1_545  S
C504        H508   1.110       .  S
C504        H509   1.105       .  S
C504        H510   1.111       .  S
H506       C2733   1.109       .  S
H507       C2733   1.106       .  S
C511        C512   1.399       .  A
C511        C516   1.400       .  A
C511        H518   1.080       .  S
C512        C513   1.414       .  A
C513        C514   1.405       .  A
C513        C520   1.504       .  S
C514        C515   1.406       .  A
C514        H519   1.085       .  S
C515        C516   1.415       .  A
C516        C517   1.507       .  S
C517        H521   1.111       .  S
C517        H522   1.109       .  S
C517        H523   1.110       .  S
C520        H524   1.110       .  S
C520        H525   1.104       .  S
C520        H526   1.110       .  S
C527        C532   1.414       .  A
C527       C1086   1.406       .  A
C527        H534   1.084       .  S
C528        C529   1.410       .  A
C528       C1085   1.406       .  A
C529        C530   1.392   1_554  A
C529        C536   1.510       .  S
C530       C1089   1.406       .  A
C530        H535   1.083       .  S
C531        C532   1.415       .  A
C531       C1088   1.406       .  A
C532        C533   1.500       .  S
C533        H537   1.111       .  S
C533        H538   1.108       .  S
C533        H539   1.110       .  S
C536        H540   1.102       .  S
C536        H541   1.109       .  S
C536        H542   1.111       .  S
C543        C544   1.404       .  A
C543        C548   1.409       .  A
C543        H550   1.084       .  S
C544        C545   1.415       .  A
C545        C546   1.408       .  A
C545        C552   1.508       .  S
C546        C547   1.408       .  A
C546        H551   1.084       .  S
C547        C548   1.418       .  A
C548        C549   1.504       .  S
C549        H553   1.111       .  S
C549        H554   1.107       .  S
C549        H555   1.110       .  S
C552        H556   1.111       .  S
C552        H557   1.109       .  S
C552        H558   1.111       .  S
O559        C567   1.265       .  A
O559       Co579   1.889       .  S
O560        C568   1.246       .  A
O560       Co580   1.932       .  S
O561        C569   1.268       .  A
O561       Co581   2.055       .  S
O562        C570   1.279       .  A
O562       Co582   2.030       .  S
O563        C569   1.245       .  A
O563       Co580   1.934       .  S
O564        C570   1.274       .  A
O564       Co579   1.989       .  S
O565        C568   1.273       .  A
O565       Co582   2.050       .  S
O566        C567   1.293       .  A
O566       Co581   2.097       .  S
C567       C1022   1.485       .  S
C568        C990   1.475       .  S
C569       C1089   1.491       .  S
C570       C3289   1.503       .  S
O571        C584   1.260       .  A
O571       Co579   2.003       .  S
O572        C585   1.277       .  A
O572       Co580   2.026       .  S
O573        C586   1.270       .  A
O573       Co581   1.913       .  S
O574        C587   1.256       .  A
O574       Co582   1.938       .  S
O575        C587   1.270       .  A
O575       Co580   2.027       .  S
O576        C586   1.294       .  A
O576       Co579   2.094       .  S
O577        C584   1.255       .  A
O577       Co582   1.978       .  S
O578        C585   1.267       .  A
O578       Co581   1.976       .  S
Co579       O583   2.003       .  S
Co580       O583   2.010       .  S
Co581       O583   2.028       .  S
Co582       O583   2.030       .  S
C584       C1006   1.477       .  S
C585       C1070   1.476       .  S
C586       C1102   1.488       .  S
C587       C1041   1.473       .  S
O588        C596   1.248       .  A
O588       Co608   1.939       .  S
O589        C597   1.250       .  A
O589       Co609   1.997       .  S
O590        C598   1.250   1_655  A
O590      Co2842   1.972       .  S
O591        C599   1.282       .  A
O591       Co611   2.051       .  S
O592       C2830   1.258       .  A
O592       Co609   1.990       .  S
O593        C599   1.248       .  A
O593       Co608   1.913       .  S
O594        C597   1.240       .  A
O594       Co611   1.960       .  S
O595        C596   1.269       .  A
O595       Co610   2.032       .  S
C596        C910   1.472       .  S
C597       C2141   1.473   1_545  S
C598       O2824   1.258   1_455  A
C598        C958   1.481       .  S
C599        C942   1.491       .  S
O600        C613   1.259       .  A
O600       Co608   1.994       .  S
O601        C614   1.286       .  A
O601       Co609   2.024       .  S
O602        C615   1.256       .  A
O602       Co610   1.985       .  S
O603        C616   1.282       .  A
O603       Co611   1.940       .  S
O604        C616   1.287       .  A
O604       Co609   2.036       .  S
O605        C615   1.266       .  A
O605       Co608   2.005       .  S
O606        C613   1.260       .  A
O606       Co611   1.994       .  S
O607        C614   1.275       .  A
O607       Co610   1.931       .  S
Co608       O612   2.053       .  S
Co609       O612   2.225       .  S
Co610      O2822   1.972       .  S
Co610       O612   1.974       .  S
Co611       O612   1.950       .  S
C613        C977   1.493       .  S
C614        C894   1.478       .  S
C615       C1038   1.467       .  S
C616        C926   1.501       .  S
O617        C625   1.253       .  A
O617       Co637   1.972       .  S
O618        C626   1.280       .  A
O618       Co638   2.046       .  S
O619        C627   1.251       .  A
O619       Co639   2.003       .  S
O620        C628   1.248       .  A
O620       Co640   1.944       .  S
O621        C627   1.247       .  A
O621       Co638   1.992       .  S
O622        C628   1.267       .  A
O622       Co637   2.030       .  S
O623        C626   1.256       .  A
O623       Co640   1.912       .  S
O624        C625   1.260       .  A
O624       Co639   1.994       .  S
C625       C3113   1.483   1_455  S
C626        C798   1.488       .  S
C627       C1946   1.509       .  S
C628        C993   1.472       .  S
O629        C642   1.259       .  A
O629       Co637   1.983       .  S
O630        C643   1.282       .  A
O630       Co638   1.913       .  S
O631        C644   1.288       .  A
O631       Co639   2.020       .  S
O632        C645   1.256       .  A
O632       Co640   1.981       .  S
O633        C645   1.263       .  A
O633       Co638   2.007       .  S
O634        C644   1.274       .  A
O634       Co637   1.938       .  S
O635        C642   1.270       .  A
O635       Co640   2.028       .  S
O636        C643   1.298       .  A
O636       Co639   2.065       .  S
Co637       O641   1.992       .  S
Co638       O641   1.949       .  S
Co639       O641   2.228       .  S
Co640       O641   2.056       .  S
C642        C849   1.495       .  S
C643        C817   1.502       .  S
C644       C1009   1.489       .  S
C645        C865   1.497       .  S
O646        C654   1.255       .  A
O646       Co666   1.991       .  S
O647        C655   1.277       .  A
O647       Co667   2.040       .  S
O648        C656   1.255       .  A
O648       Co668   1.944       .  S
O649        C657   1.257       .  A
O649       Co669   1.873       .  S
O650        C656   1.275       .  A
O650       Co667   2.045       .  S
O651        C657   1.306       .  A
O651       Co666   2.149       .  S
O652        C655   1.271       .  A
O652       Co669   1.979       .  S
O653        C654   1.254       .  A
O653       Co668   1.958       .  S
C654        C769   1.464       .  S
C655       C2170   1.509   1_545  S
C656        C814   1.477       .  S
C657        C961   1.494       .  S
O658        C671   1.260       .  A
O658       Co666   1.880       .  S
O659        C672   1.256       .  A
O659       Co667   1.957       .  S
O660        C673   1.276       .  A
O660       Co668   2.016       .  S
O661        C674   1.259       .  A
O661       Co669   1.978       .  S
O662        C674   1.255       .  A
O662       Co667   1.978       .  S
O663        C673   1.270       .  A
O663       Co666   1.973       .  S
O664        C671   1.302       .  A
O664       Co669   2.118       .  S
O665        C672   1.275       .  A
O665       Co668   2.028       .  S
Co666       O670   2.022       .  S
Co667       O670   2.053       .  S
Co668       O670   2.019       .  S
Co669       O670   1.979       .  S
C671        C782   1.486       .  S
C672        C974   1.495       .  S
C673       C1073   1.480       .  S
C674        C801   1.482       .  S
O675        C683   1.273       .  A
O675       Co695   2.051       .  S
O676        C684   1.271       .  A
O676       Co696   1.919       .  S
O677        C685   1.274       .  A
O677       Co697   1.903       .  S
O678        C686   1.264       .  A
O678       Co698   1.973       .  S
O679        C685   1.296       .  A
O679       Co696   2.054       .  S
O680        C686   1.271       .  A
O680       Co695   2.032       .  S
O681        C684   1.279       .  A
O681       Co698   2.024       .  S
O682        C683   1.255       .  A
O682       Co697   1.999       .  S
C683       C2969   1.502   1_455  S
C684        C785   1.488       .  S
C685        C897   1.461       .  S
C686        C833   1.506       .  S
O687        C700   1.253       .  A
O687       Co695   1.961       .  S
O688        C701   1.254       .  A
O688       Co696   1.992       .  S
O689        C702   1.273       .  A
O689       Co697   2.038       .  S
O690        C703   1.259       .  A
O690       Co698   1.994       .  S
O691        C703   1.249       .  A
O691       Co696   1.957       .  S
O692        C702   1.245       .  A
O692       Co695   1.946       .  S
O693        C700   1.258       .  A
O693       Co698   1.989       .  S
O694        C701   1.252       .  A
O694       Co697   1.994       .  S
Co695       O699   2.064       .  S
Co696       O699   2.074       .  S
Co697       O699   1.943       .  S
Co698       O699   2.117       .  S
C700        C766   1.478       .  S
C701        C846   1.495       .  S
C702        C913   1.488       .  S
C703        C750   1.479       .  S
O704        C712   1.263       .  A
O704       Co724   1.895       .  S
O705        C713   1.252       .  A
O705       Co725   1.940       .  S
O706        C714   1.268       .  A
O706       Co726   2.033       .  S
O707        C715   1.285       .  A
O707       Co727   2.055       .  S
O708        C714   1.247       .  A
O708       Co725   1.942       .  S
O709        C715   1.270       .  A
O709       Co724   1.980       .  S
O710        C713   1.274       .  A
O710       Co727   2.043       .  S
O711        C712   1.288       .  A
O711       Co726   2.092       .  S
C712        C878   1.484       .  S
C713        C929   1.479       .  S
C714       C1086   1.472       .  S
C715       C1850   1.514       .  S
O716        C729   1.260       .  A
O716       Co724   1.978       .  S
O717        C730   1.276       .  A
O717       Co725   2.031       .  S
O718        C731   1.270       .  A
O718       Co726   1.925       .  S
O719        C732   1.257       .  A
O719       Co727   1.963       .  S
O720        C732   1.274       .  A
O720       Co725   2.023       .  S
O721        C731   1.291       .  A
O721       Co724   2.088       .  S
O722        C729   1.252       .  A
O722       Co727   1.982       .  S
O723        C730   1.261       .  A
O723       Co726   1.961       .  S
Co724       O728   2.008       .  S
Co725       O728   2.033       .  S
Co726       O728   2.042       .  S
Co727       O728   2.051       .  S
C729        C945   1.477       .  S
C730        C753   1.472       .  S
C731       C1105   1.496       .  S
C732        C862   1.495       .  S
C733        C734   1.411       .  A
C733        C738   1.411       .  A
C733        H740   1.083       .  S
C734       C1831   1.514   1_545  S
C734        C735   1.425       .  A
C735        C736   1.418       .  A
C735        C742   1.507       .  S
C736        C737   1.407       .  A
C736       H2973   1.084       .  S
C737       C2915   1.502       .  S
C737        C738   1.415       .  A
C738        C739   1.505       .  S
C739        H743   1.111       .  S
C739        H744   1.109       .  S
C739        H745   1.110       .  S
H741       C2968   1.084   1_455  S
C742       H1862   1.110       .  S
C742       H1863   1.109   1_545  S
C742        H748   1.111       .  S
H746       C1858   1.110       .  S
H747       C1858   1.109       .  S
C749        C750   1.401       .  A
C749        C754   1.402       .  A
C749        H756   1.084       .  S
C750        C751   1.422       .  A
C751        C752   1.404       .  A
C751        C758   1.508       .  S
C752        C753   1.398       .  A
C752        H757   1.084       .  S
C753        C754   1.414       .  A
C754        C755   1.505       .  S
C755        H759   1.111       .  S
C755        H760   1.109       .  S
C755        H761   1.109       .  S
C758        H762   1.107       .  S
C758        H763   1.110       .  S
C758        H764   1.111       .  S
C765        C766   1.408       .  A
C765        C770   1.399       .  A
C765        H772   1.084       .  S
C766        C767   1.420       .  A
C767        C768   1.394       .  A
C767        C774   1.510       .  S
C768        C769   1.398       .  A
C768        H773   1.085       .  S
C769        C770   1.408       .  A
C770        C771   1.503       .  S
C771        H775   1.111       .  S
C771        H776   1.110       .  S
C771        H777   1.103       .  S
C774        H778   1.110       .  S
C774        H779   1.110       .  S
C774        H780   1.111       .  S
C781        C786   1.393       .  A
C781        H788   1.084       .  S
C782        C783   1.425       .  A
C783        C790   1.508       .  S
C784        C785   1.402       .  A
C784        H789   1.084       .  S
C785        C786   1.426       .  A
C786        C787   1.509       .  S
C787        H791   1.111       .  S
C787        H792   1.110       .  S
C787        H793   1.109       .  S
C790        H794   1.110       .  S
C790        H795   1.109       .  S
C790        H796   1.111       .  S
C797        C802   1.384   1_554  A
C797        H804   1.084       .  S
C798       C1915   1.410       .  A
C799       C1914   1.410       .  A
C799        C800   1.415       .  A
C799        C806   1.503       .  S
C800        H805   1.083       .  S
C801       C1918   1.415       .  A
C802       C1917   1.415       .  A
C802        C803   1.515       .  S
C803        H807   1.111       .  S
C803        H808   1.109       .  S
C803        H809   1.109       .  S
C806        H810   1.110       .  S
C806        H811   1.111       .  S
C806        H812   1.111       .  S
C813        C814   1.396   1_565  A
C813       C1934   1.409       .  A
C813        H820   1.084       .  S
C814        C815   1.414       .  A
C815        C816   1.404       .  A
C815        C822   1.509       .  S
C816       C1933   1.406   1_545  A
C816        H821   1.083       .  S
C817       C1932   1.406       .  A
C817        C818   1.428       .  A
C818       C1929   1.409       .  A
C818        C819   1.503       .  S
C819        H823   1.111       .  S
C819        H824   1.110       .  S
C819        H825   1.104       .  S
C822        H826   1.110       .  S
C822        H827   1.109       .  S
C822        H828   1.111       .  S
C829        C830   1.411       .  A
C829        C834   1.412       .  A
C829        H836   1.083       .  S
C830       C1743   1.509   1_545  S
C830        C831   1.419       .  A
C831        C832   1.407       .  A
C831        C838   1.504       .  S
C832        C833   1.406       .  A
C832        H837   1.077       .  S
C833        C834   1.420       .  A
C834        C835   1.508       .  S
C835        H839   1.111       .  S
C835        H840   1.111       .  S
C835        H841   1.109       .  S
C838        H842   1.108       .  S
C838        H843   1.110       .  S
C838        H844   1.110       .  S
C845        C846   1.407       .  A
C845        C850   1.407       .  A
C845        H852   1.084       .  S
C846        C847   1.420       .  A
C847        C848   1.406       .  A
C847        C854   1.509       .  S
C848        C849   1.407       .  A
C848        H853   1.084       .  S
C849        C850   1.418       .  A
C850        C851   1.506       .  S
C851        H855   1.111       .  S
C851        H856   1.107       .  S
C851        H857   1.109       .  S
C854        H858   1.110       .  S
C854        H859   1.110       .  S
C854        H860   1.111       .  S
C861        C862   1.400       .  A
C861        C866   1.401       .  A
C861        H868   1.081       .  S
C862        C863   1.422       .  A
C863        C864   1.411       .  A
C863        C870   1.508       .  S
C864        C865   1.405       .  A
C864        H869   1.083       .  S
C865        C866   1.427       .  A
C866        C867   1.513       .  S
C867        H871   1.111       .  S
C867        H872   1.111       .  S
C867        H873   1.110       .  S
C870        H874   1.109       .  S
C870        H875   1.110       .  S
C870        H876   1.111       .  S
C877        C878   1.401       .  A
C877        C882   1.396       .  A
C877        H884   1.085       .  S
C878        C879   1.425       .  A
C879        C880   1.407       .  A
C879        C886   1.510       .  S
C880        C881   1.403       .  A
C880        H885   1.085       .  S
C881       C2857   1.483       .  S
C881        C882   1.413       .  A
C882       C3115   1.499       .  S
C883       C3114   1.499   1_455  S
C883        H887   1.111       .  S
C883        H888   1.109       .  S
C883        H889   1.108       .  S
C886        H890   1.110       .  S
C886        H891   1.101       .  S
C886        H892   1.110       .  S
C893       C3130   1.397       .  A
C893        H900   1.080       .  S
C894       C3127   1.413       .  A
C895       C3126   1.413   1_455  A
C895        C902   1.506       .  S
C896        C897   1.404       .  A
C896        H901   1.085       .  S
C897        C898   1.403       .  A
C898       C3125   1.397   1_455  A
C898        C899   1.507   1_455  S
C899       H3135   1.111       .  S
C899       H3136   1.111       .  S
C899        H905   1.110   1_655  S
C902        H906   1.110       .  S
C902        H907   1.110       .  S
C902        H908   1.111       .  S
H903       C3131   1.111       .  S
H904       C3131   1.111       .  S
C909       C3142   1.393   1_455  A
C909        C914   1.403       .  A
C909        H916   1.085       .  S
C910       C3141   1.393       .  A
C910        C911   1.421       .  A
C911        C912   1.401       .  A
C911        C918   1.511       .  S
C912       C3145   1.398       .  A
C912        H917   1.082       .  S
C913       C3144   1.398   1_455  A
C913        C914   1.430       .  A
C914        C915   1.510       .  S
C915        H919   1.111       .  S
C915        H920   1.110       .  S
C915        H921   1.109       .  S
C918        H922   1.108       .  S
C918        H923   1.106       .  S
C918        H924   1.111       .  S
C925       C2042   1.404       .  A
C925        C930   1.407   1_556  A
C925        H932   1.084       .  S
C926       C2041   1.404   1_545  A
C927        C928   1.407       .  A
C927        C934   1.505       .  S
C928       C2045   1.393   1_545  A
C928        H933   1.085       .  S
C929       C2044   1.393       .  A
C930        C931   1.507   1_554  S
C931        H935   1.111       .  S
C931        H937   1.109   1_556  S
C934        H938   1.110       .  S
C934        H940   1.111       .  S
C941        C942   1.407   1_565  A
C941        C946   1.413       .  A
C941        H948   1.083       .  S
C942        C943   1.435       .  A
C943        C944   1.386       .  A
C943        C950   1.520       .  S
C944       C2061   1.392   1_545  A
C944       H2065   1.084       .  S
C945       C2060   1.392       .  A
C945       C2062   1.417       .  A
C946       C2061   1.417       .  A
C946       C2063   1.505       .  S
C947       C2062   1.505       .  S
C947       H2067   1.111       .  S
C947        H952   1.110       .  S
C947        H953   1.109       .  S
H949       C2060   1.084       .  S
C950        H954   1.107       .  S
C950        H955   1.108       .  S
C950        H956   1.110       .  S
H951       C2063   1.111       .  S
C957        C958   1.399       .  A
C957        C962   1.400       .  A
C957        H964   1.085       .  S
C958        C959   1.413       .  A
C959        C960   1.409       .  A
C959        C966   1.507       .  S
C960        C961   1.406       .  A
C960        H965   1.078       .  S
C961        C962   1.423       .  A
C962        C963   1.506       .  S
C963        H967   1.111       .  S
C963        H968   1.109       .  S
C963        H969   1.100       .  S
C966        H970   1.111       .  S
C966        H971   1.110       .  S
C966        H972   1.111       .  S
C973        C974   1.404       .  A
C973        C978   1.404       .  A
C973        H980   1.084       .  S
C974        C975   1.424       .  A
C975        C976   1.405       .  A
C975        C982   1.510       .  S
C976        C977   1.403       .  A
C976        H981   1.084       .  S
C977        C978   1.423       .  A
C978        C979   1.510       .  S
C979        H983   1.111       .  S
C979        H984   1.110       .  S
C979        H985   1.111       .  S
C982        H986   1.110       .  S
C982        H987   1.110       .  S
C982        H988   1.111       .  S
C989       C3222   1.396   1_455  A
C989        C994   1.403       .  A
C989        H996   1.084       .  S
C990       C3221   1.396       .  A
C991        C992   1.402       .  A
C991        C998   1.510       .  S
C992       C3225   1.394       .  A
C992        H997   1.084       .  S
C993       C3224   1.394   1_455  A
C994        C995   1.509       .  S
C995        H999   1.111       .  S
C995       H1000   1.110   1_556  S
C998       H1003   1.109       .  S
C998       H1004   1.111       .  S
C1005      C1006   1.405       .  A
C1005      C1010   1.410       .  A
C1005      H1012   1.085       .  S
C1006      C3239   1.412       .  A
C1007      C3238   1.412   1_455  A
C1007      C1008   1.394       .  A
C1007      C1014   1.506       .  S
C1008      C1009   1.401       .  A
C1008      H1013   1.079       .  S
C1009      C3242   1.419   1_455  A
C1010      C3241   1.419       .  A
C1010      C1011   1.506       .  S
C1011      H1015   1.111       .  S
C1011      H1016   1.110       .  S
C1011      H1017   1.111       .  S
C1014      H1018   1.106       .  S
C1014      H1019   1.106       .  S
C1014      H1020   1.111       .  S
C1021      C1022   1.403       .  A
C1021      C1026   1.398       .  A
C1021      H1028   1.084       .  S
C1022      C1023   1.419       .  A
C1023      C1024   1.403       .  A
C1023      C1030   1.500       .  S
C1024      C1025   1.397       .  A
C1024      H1029   1.084       .  S
C1025      C1713   1.473       .  S
C1025      C1026   1.412       .  A
C1026      C1027   1.502       .  S
C1027      H1031   1.111       .  S
C1027      H2148   1.111       .  S
C1027      H1033   1.104       .  S
C1030      H1034   1.110       .  S
C1030      H1035   1.108       .  S
C1030      H1036   1.111       .  S
H1032      C2143   1.111       .  S
C1037      C1038   1.406       .  A
C1037      C1042   1.409       .  A
C1037      H1044   1.084       .  S
C1038      C1039   1.412       .  A
C1039      C1040   1.386       .  A
C1039      C1046   1.509       .  S
C1040      C1041   1.401       .  A
C1040      H1045   1.084       .  S
C1041      C1042   1.413       .  A
C1042      C1043   1.505       .  S
C1043      H1047   1.111       .  S
C1043      H1048   1.110       .  S
C1043      H1049   1.110       .  S
C1046      H1050   1.105       .  S
C1046      H3283   1.107       .  S
C1046      H3284   1.111       .  S
H1051      C3278   1.107       .  S
H1052      C3278   1.111       .  S
C1053      C1054   1.404       .  A
C1053      C1058   1.405       .  A
C1053      H2176   1.081       .  S
C1054      C1771   1.509       .  S
C1054      C1055   1.424       .  A
C1055      C1056   1.415       .  A
C1055      C1062   1.507       .  S
C1056      C1057   1.408       .  A
C1056      H1061   1.084       .  S
C1057      C2802   1.503   1_455  S
C1057      C1058   1.419       .  A
C1058      C1059   1.504       .  S
C1059      H1063   1.110       .  S
C1059      H3296   1.109   1_455  S
C1059      H3297   1.106   1_455  S
H1060      C2169   1.081   1_545  S
C1062      H1066   1.110       .  S
C1062      H1067   1.105       .  S
C1062      H1068   1.111       .  S
H1064      C3291   1.109       .  S
H1065      C3291   1.106       .  S
C1069      C1070   1.399       .  A
C1069      C1074   1.400       .  A
C1069      H1076   1.080       .  S
C1070      C1071   1.414       .  A
C1071      C1072   1.405       .  A
C1071      C1078   1.504       .  S
C1072      C1073   1.406       .  A
C1072      H1077   1.085       .  S
C1073      C1074   1.415       .  A
C1074      C1075   1.507       .  S
C1075      H1079   1.111       .  S
C1075      H1080   1.109       .  S
C1075      H1081   1.110       .  S
C1078      H1082   1.110       .  S
C1078      H1083   1.104       .  S
C1078      H1084   1.110       .  S
C1085      C1090   1.414   1_554  A
C1085      H1092   1.084       .  S
C1086      C1087   1.410       .  A
C1087      C1088   1.392       .  A
C1087      C1094   1.510       .  S
C1088      H1093   1.083       .  S
C1089      C1090   1.415       .  A
C1090      C1091   1.500       .  S
C1091      H1095   1.111       .  S
C1091      H1096   1.108       .  S
C1091      H1097   1.110       .  S
C1094      H1098   1.102       .  S
C1094      H1099   1.109       .  S
C1094      H1100   1.111       .  S
C1101      C1102   1.404       .  A
C1101      C1106   1.409       .  A
C1101      H1108   1.084       .  S
C1102      C1103   1.415       .  A
C1103      C1104   1.408       .  A
C1103      C1110   1.508       .  S
C1104      C1105   1.408       .  A
C1104      H1109   1.084       .  S
C1105      C1106   1.418       .  A
C1106      C1107   1.504       .  S
C1107      H1111   1.111       .  S
C1107      H1112   1.107       .  S
C1107      H1113   1.110       .  S
C1110      H1114   1.111       .  S
C1110      H1115   1.109       .  S
C1110      H1116   1.111       .  S
O1117      C1125   1.265       .  A
O1117     Co1137   1.889       .  S
O1118      C1126   1.246       .  A
O1118     Co1138   1.932       .  S
O1119      C1127   1.268       .  A
O1119     Co1139   2.055       .  S
O1120      C1128   1.279       .  A
O1120     Co1140   2.030       .  S
O1121      C1127   1.245       .  A
O1121     Co1138   1.934       .  S
O1122      C1128   1.274       .  A
O1122     Co1137   1.989       .  S
O1123      C1126   1.273       .  A
O1123     Co1140   2.050       .  S
O1124      C1125   1.293       .  A
O1124     Co1139   2.097       .  S
C1125      C1580   1.485       .  S
C1126      C1548   1.475       .  S
C1127      C1647   1.491       .  S
C1128      C3847   1.503       .  S
O1129      C1142   1.260       .  A
O1129     Co1137   2.003       .  S
O1130      C1143   1.277       .  A
O1130     Co1138   2.026       .  S
O1131      C1144   1.270       .  A
O1131     Co1139   1.913       .  S
O1132      C1145   1.256       .  A
O1132     Co1140   1.938       .  S
O1133      C1145   1.270       .  A
O1133     Co1138   2.027       .  S
O1134      C1144   1.294       .  A
O1134     Co1137   2.094       .  S
O1135      C1142   1.255       .  A
O1135     Co1140   1.978       .  S
O1136      C1143   1.267       .  A
O1136     Co1139   1.976       .  S
Co1137     O1141   2.003       .  S
Co1138     O1141   2.010       .  S
Co1139     O1141   2.028       .  S
Co1140     O1141   2.030       .  S
C1142      C1564   1.477       .  S
C1143      C1628   1.476       .  S
C1144      C1660   1.488       .  S
C1145      C1599   1.473       .  S
O1146      C1154   1.248       .  A
O1146     Co1166   1.939       .  S
O1147      C1155   1.250       .  A
O1147     Co1167   1.997       .  S
O1148      C1156   1.250   1_655  A
O1148     Co3400   1.972       .  S
O1149      C1157   1.282       .  A
O1149     Co1169   2.051       .  S
O1150      C3388   1.258       .  A
O1150     Co1167   1.990       .  S
O1151      C1157   1.248       .  A
O1151     Co1166   1.913       .  S
O1152      C1155   1.240       .  A
O1152     Co1169   1.960       .  S
O1153      C1154   1.269       .  A
O1153     Co1168   2.032       .  S
C1154      C1468   1.472       .  S
C1156      O3382   1.258   1_455  A
C1156      C1516   1.481       .  S
C1157      C1500   1.491       .  S
O1158      C1171   1.259       .  A
O1158     Co1166   1.994       .  S
O1159      C1172   1.286       .  A
O1159     Co1167   2.024       .  S
O1160      C1173   1.256       .  A
O1160     Co1168   1.985       .  S
O1161      C1174   1.282       .  A
O1161     Co1169   1.940       .  S
O1162      C1174   1.287       .  A
O1162     Co1167   2.036       .  S
O1163      C1173   1.266       .  A
O1163     Co1166   2.005       .  S
O1164      C1171   1.260       .  A
O1164     Co1169   1.994       .  S
O1165      C1172   1.275       .  A
O1165     Co1168   1.931       .  S
Co1166     O1170   2.053       .  S
Co1167     O1170   2.225       .  S
Co1168     O3380   1.972       .  S
Co1168     O1170   1.974       .  S
Co1169     O1170   1.950       .  S
C1171      C1535   1.493       .  S
C1172      C1452   1.478       .  S
C1173      C1596   1.467       .  S
C1174      C1484   1.501       .  S
O1175      C1183   1.253       .  A
O1175     Co1195   1.972       .  S
O1176      C1184   1.280       .  A
O1176     Co1196   2.046       .  S
O1177      C1185   1.251       .  A
O1177     Co1197   2.003       .  S
O1178      C1186   1.248       .  A
O1178     Co1198   1.944       .  S
O1179      C1185   1.247       .  A
O1179     Co1196   1.992       .  S
O1180      C1186   1.267       .  A
O1180     Co1195   2.030       .  S
O1181      C1184   1.256       .  A
O1181     Co1198   1.912       .  S
O1182      C1183   1.260       .  A
O1182     Co1197   1.994       .  S
C1183      C3671   1.483   1_455  S
C1184      C1356   1.488   1_565  S
C1186      C1551   1.472       .  S
O1187      C1200   1.259       .  A
O1187     Co1195   1.983       .  S
O1188      C1201   1.282       .  A
O1188     Co1196   1.913       .  S
O1189      C1202   1.288       .  A
O1189     Co1197   2.020       .  S
O1190      C1203   1.256       .  A
O1190     Co1198   1.981       .  S
O1191      C1203   1.263       .  A
O1191     Co1196   2.007       .  S
O1192      C1202   1.274       .  A
O1192     Co1195   1.938       .  S
O1193      C1200   1.270       .  A
O1193     Co1198   2.028       .  S
O1194      C1201   1.298       .  A
O1194     Co1197   2.065       .  S
Co1195     O1199   1.992       .  S
Co1196     O1199   1.949       .  S
Co1197     O1199   2.228       .  S
Co1198     O1199   2.056       .  S
C1200      C1407   1.495       .  S
C1201      C1375   1.502       .  S
C1202      C1567   1.489       .  S
C1203      C1423   1.497       .  S
O1204      C1212   1.255       .  A
O1204     Co1224   1.991       .  S
O1205      C1213   1.277       .  A
O1205     Co1225   2.040       .  S
O1206      C1214   1.255       .  A
O1206     Co1226   1.944       .  S
O1207      C1215   1.257       .  A
O1207     Co1227   1.873       .  S
O1208      C1214   1.275       .  A
O1208     Co1225   2.045       .  S
O1209      C1215   1.306       .  A
O1209     Co1224   2.149       .  S
O1210      C1213   1.271       .  A
O1210     Co1227   1.979       .  S
O1211      C1212   1.254       .  A
O1211     Co1226   1.958       .  S
C1212      C1327   1.464       .  S
C1214      C1372   1.477       .  S
C1215      C1519   1.494       .  S
O1216      C1229   1.260       .  A
O1216     Co1224   1.880       .  S
O1217      C1230   1.256       .  A
O1217     Co1225   1.957       .  S
O1218      C1231   1.276       .  A
O1218     Co1226   2.016       .  S
O1219      C1232   1.259       .  A
O1219     Co1227   1.978       .  S
O1220      C1232   1.255       .  A
O1220     Co1225   1.978       .  S
O1221      C1231   1.270       .  A
O1221     Co1224   1.973       .  S
O1222      C1229   1.302       .  A
O1222     Co1227   2.118       .  S
O1223      C1230   1.275       .  A
O1223     Co1226   2.028       .  S
Co1224     O1228   2.022       .  S
Co1225     O1228   2.053       .  S
Co1226     O1228   2.019       .  S
Co1227     O1228   1.979       .  S
C1229      C1340   1.486       .  S
C1230      C1532   1.495       .  S
C1231      C1631   1.480       .  S
C1232      C1359   1.482       .  S
O1233      C1241   1.273       .  A
O1233     Co1253   2.051       .  S
O1234      C1242   1.271       .  A
O1234     Co1254   1.919       .  S
O1235      C1243   1.274       .  A
O1235     Co1255   1.903       .  S
O1236      C1244   1.264       .  A
O1236     Co1256   1.973       .  S
O1237      C1243   1.296       .  A
O1237     Co1254   2.054       .  S
O1238      C1244   1.271       .  A
O1238     Co1253   2.032       .  S
O1239      C1242   1.279       .  A
O1239     Co1256   2.024       .  S
O1240      C1241   1.255       .  A
O1240     Co1255   1.999       .  S
C1241      C3527   1.502   1_455  S
C1242      C1343   1.488       .  S
C1243      C1455   1.461       .  S
C1244      C1391   1.506       .  S
O1245      C1258   1.253       .  A
O1245     Co1253   1.961       .  S
O1246      C1259   1.254       .  A
O1246     Co1254   1.992       .  S
O1247      C1260   1.273       .  A
O1247     Co1255   2.038       .  S
O1248      C1261   1.259       .  A
O1248     Co1256   1.994       .  S
O1249      C1261   1.249       .  A
O1249     Co1254   1.957       .  S
O1250      C1260   1.245       .  A
O1250     Co1253   1.946       .  S
O1251      C1258   1.258       .  A
O1251     Co1256   1.989       .  S
O1252      C1259   1.252       .  A
O1252     Co1255   1.994       .  S
Co1253     O1257   2.064       .  S
Co1254     O1257   2.074       .  S
Co1255     O1257   1.943       .  S
Co1256     O1257   2.117       .  S
C1258      C1324   1.478       .  S
C1259      C1404   1.495       .  S
C1260      C1471   1.488       .  S
C1261      C1308   1.479       .  S
O1262      C1270   1.263       .  A
O1262     Co1282   1.895       .  S
O1263      C1271   1.252       .  A
O1263     Co1283   1.940       .  S
O1264      C1272   1.268       .  A
O1264     Co1284   2.033       .  S
O1265      C1273   1.285       .  A
O1265     Co1285   2.055       .  S
O1266      C1272   1.247       .  A
O1266     Co1283   1.942       .  S
O1267      C1273   1.270       .  A
O1267     Co1282   1.980       .  S
O1268      C1271   1.274       .  A
O1268     Co1285   2.043       .  S
O1269      C1270   1.288       .  A
O1269     Co1284   2.092       .  S
C1270      C1436   1.484       .  S
C1271      C1487   1.479       .  S
C1272      C1644   1.472       .  S
O1274      C1287   1.260       .  A
O1274     Co1282   1.978       .  S
O1275      C1288   1.276       .  A
O1275     Co1283   2.031       .  S
O1276      C1289   1.270       .  A
O1276     Co1284   1.925       .  S
O1277      C1290   1.257       .  A
O1277     Co1285   1.963       .  S
O1278      C1290   1.274       .  A
O1278     Co1283   2.023       .  S
O1279      C1289   1.291       .  A
O1279     Co1282   2.088       .  S
O1280      C1287   1.252       .  A
O1280     Co1285   1.982       .  S
O1281      C1288   1.261       .  A
O1281     Co1284   1.961       .  S
Co1282     O1286   2.008       .  S
Co1283     O1286   2.033       .  S
Co1284     O1286   2.042       .  S
Co1285     O1286   2.051       .  S
C1287      C1503   1.477       .  S
C1288      C1311   1.472       .  S
C1289      C1663   1.496       .  S
C1290      C1420   1.495       .  S
C1291      C1292   1.411       .  A
C1291      C1296   1.411       .  A
C1291      H1298   1.083       .  S
C1292      C1293   1.425       .  A
C1293      C1294   1.418       .  A
C1293      C1300   1.507       .  S
C1294      C1295   1.407       .  A
C1294      H3531   1.084       .  S
C1295      C3473   1.502       .  S
C1295      C1296   1.415       .  A
C1296      C1297   1.505       .  S
C1297      H1301   1.111       .  S
C1297      H1302   1.109       .  S
C1297      H1303   1.110       .  S
H1299      C3526   1.084   1_455  S
C1300      H1306   1.111       .  S
C1307      C1308   1.401       .  A
C1307      C1312   1.402       .  A
C1307      H1314   1.084       .  S
C1308      C1309   1.422       .  A
C1309      C1310   1.404       .  A
C1309      C1316   1.508       .  S
C1310      C1311   1.398       .  A
C1310      H1315   1.084       .  S
C1311      C1312   1.414       .  A
C1312      C1313   1.505       .  S
C1313      H1317   1.111       .  S
C1313      H1318   1.109       .  S
C1313      H1319   1.109       .  S
C1316      H1320   1.107       .  S
C1316      H1321   1.110       .  S
C1316      H1322   1.111       .  S
C1323      C1324   1.408       .  A
C1323      C1328   1.399       .  A
C1323      H1330   1.084       .  S
C1324      C1325   1.420       .  A
C1325      C1326   1.394       .  A
C1325      C1332   1.510       .  S
C1326      C1327   1.398       .  A
C1326      H1331   1.085       .  S
C1327      C1328   1.408       .  A
C1328      C1329   1.503       .  S
C1329      H1333   1.111       .  S
C1329      H1334   1.110       .  S
C1329      H1335   1.103       .  S
C1332      H1336   1.110       .  S
C1332      H1337   1.110       .  S
C1332      H1338   1.111       .  S
C1339      C1898   1.397       .  A
C1339      C1344   1.393   1_556  A
C1339      H1346   1.084       .  S
C1340      C1897   1.397       .  A
C1340      C1341   1.425       .  A
C1341      C1900   1.408       .  A
C1341      C1348   1.508       .  S
C1342      C1899   1.408       .  A
C1342      C1343   1.402   1_556  A
C1342      H1347   1.084       .  S
C1343      C1344   1.426       .  A
C1344      C1345   1.509       .  S
C1345      H1349   1.111       .  S
C1345      H1350   1.110       .  S
C1345      H1351   1.109       .  S
C1348      H1352   1.110       .  S
C1348      H1353   1.109       .  S
C1348      H1354   1.111       .  S
C1355      C1914   1.409   1_565  A
C1355      C1360   1.384   1_565  A
C1355      H1362   1.084       .  S
C1356      C1913   1.409   1_545  A
C1357      C1358   1.415       .  A
C1357      C1364   1.503       .  S
C1358      C1917   1.414   1_554  A
C1358      H1363   1.083   1_554  S
C1359      C1916   1.414       .  A
C1360      C1361   1.515       .  S
C1361      H1365   1.111   1_545  S
C1361      H1366   1.109   1_545  S
C1361      H1367   1.109       .  S
C1364      H1368   1.110       .  S
C1364      H1369   1.111       .  S
C1364      H1370   1.111       .  S
C1371      C1372   1.396       .  A
C1371      H1378   1.084       .  S
C1372      C1373   1.414       .  A
C1373      C1374   1.404       .  A
C1373      C1380   1.509       .  S
C1374      H1379   1.083       .  S
C1375      C1376   1.428       .  A
C1376      C1377   1.503       .  S
C1377      H1381   1.111       .  S
C1377      H1382   1.110       .  S
C1377      H1383   1.104       .  S
C1380      H1384   1.110       .  S
C1380      H1385   1.109       .  S
C1380      H1386   1.111       .  S
C1387      C1388   1.411       .  A
C1387      C1392   1.412       .  A
C1387      H1394   1.083       .  S
C1388      C1389   1.419       .  A
C1389      C1390   1.407       .  A
C1389      C1396   1.504       .  S
C1390      C1391   1.406       .  A
C1390      H1395   1.077       .  S
C1391      C1392   1.420       .  A
C1392      C1393   1.508       .  S
C1393      H1397   1.111       .  S
C1393      H1398   1.111       .  S
C1393      H1399   1.109       .  S
C1396      H1400   1.108       .  S
C1396      H1401   1.110       .  S
C1396      H1402   1.110       .  S
C1403      C1404   1.407       .  A
C1403      C1408   1.407       .  A
C1403      H1410   1.084       .  S
C1404      C1405   1.420       .  A
C1405      C1406   1.406       .  A
C1405      C1412   1.509       .  S
C1406      C1407   1.407       .  A
C1406      H1411   1.084       .  S
C1407      C1408   1.418       .  A
C1408      C1409   1.506       .  S
C1409      H1413   1.111       .  S
C1409      H1414   1.107       .  S
C1409      H1415   1.109       .  S
C1412      H1416   1.110       .  S
C1412      H1417   1.110       .  S
C1412      H1418   1.111       .  S
C1419      C1420   1.400       .  A
C1419      C1424   1.401       .  A
C1419      H1426   1.081       .  S
C1420      C1421   1.422       .  A
C1421      C1422   1.411       .  A
C1421      C1428   1.508       .  S
C1422      C1423   1.405       .  A
C1422      H1427   1.083       .  S
C1423      C1424   1.427       .  A
C1424      C1425   1.513       .  S
C1425      H1429   1.111       .  S
C1425      H1430   1.111       .  S
C1425      H1431   1.110       .  S
C1428      H1432   1.109       .  S
C1428      H1433   1.110       .  S
C1428      H1434   1.111       .  S
C1435      C1436   1.401       .  A
C1435      C1440   1.396       .  A
C1435      H1442   1.085       .  S
C1436      C1437   1.425       .  A
C1437      C1438   1.407       .  A
C1437      C1444   1.510       .  S
C1438      C1439   1.403       .  A
C1438      H1443   1.085       .  S
C1439      C3415   1.483       .  S
C1439      C1440   1.413       .  A
C1440      C3673   1.499       .  S
C1441      C3672   1.499   1_455  S
C1441      H1445   1.111       .  S
C1441      H1446   1.109       .  S
C1441      H1447   1.108       .  S
C1444      H1448   1.110       .  S
C1444      H1449   1.101       .  S
C1444      H1450   1.110       .  S
C1451      C2010   1.407       .  A
C1451      C3688   1.397   1_556  A
C1451      H1458   1.080       .  S
C1452      C2009   1.407       .  A
C1452      C3685   1.413       .  A
C1453      C3684   1.413   1_455  A
C1453      C2012   1.406       .  A
C1453      C1460   1.506       .  S
C1454      C2011   1.406   1_554  A
C1454      C1455   1.404       .  A
C1454      H1459   1.085       .  S
C1455      C1456   1.403       .  A
C1456      C3683   1.397   1_454  A
C1456      C1457   1.507   1_455  S
C1457      H3693   1.111       .  S
C1457      H3694   1.111       .  S
C1457      H1463   1.110   1_655  S
C1460      H1464   1.110       .  S
C1460      H1465   1.110       .  S
C1460      H1466   1.111       .  S
H1461      C3689   1.111       .  S
H1462      C3689   1.111       .  S
C1467      C3700   1.393   1_455  A
C1467      C1472   1.403       .  A
C1467      H1474   1.085       .  S
C1468      C3699   1.393       .  A
C1468      C1469   1.421       .  A
C1469      C1470   1.401       .  A
C1469      C1476   1.511       .  S
C1470      C3703   1.398       .  A
C1470      H1475   1.082       .  S
C1471      C3702   1.398   1_455  A
C1471      C1472   1.430       .  A
C1472      C1473   1.510       .  S
C1473      H1477   1.111       .  S
C1473      H1478   1.110       .  S
C1473      H1479   1.109       .  S
C1476      H1480   1.108       .  S
C1476      H1481   1.106       .  S
C1476      H1482   1.111       .  S
C1483      C1488   1.407       .  A
C1483      H1490   1.084       .  S
C1484      C2043   1.431       .  A
C1485      C2042   1.431   1_554  A
C1485      C1486   1.407       .  A
C1485      C1492   1.505       .  S
C1486      H1491   1.085       .  S
C1487      C2046   1.417       .  A
C1488      C2045   1.417       .  A
C1488      C1489   1.507       .  S
C1489      H1493   1.111       .  S
C1489      H2052   1.107       .  S
C1489      H1495   1.109       .  S
C1492      H1496   1.110   1_554  S
C1492      H2055   1.106   1_554  S
C1492      H1498   1.111       .  S
H1494      C2047   1.107   1_554  S
H1497      C2050   1.106       .  S
C1499      C1500   1.407       .  A
C1499      C1504   1.413       .  A
C1499      H1506   1.083       .  S
C1500      C1501   1.435       .  A
C1501      C1502   1.386       .  A
C1501      C1508   1.520       .  S
C1505      H1510   1.110       .  S
C1505      H1511   1.109       .  S
C1508      H1512   1.107       .  S
C1508      H1513   1.108       .  S
C1508      H1514   1.110       .  S
C1515      C1516   1.399       .  A
C1515      C1520   1.400       .  A
C1515      H1522   1.085       .  S
C1516      C1517   1.413       .  A
C1517      C1518   1.409       .  A
C1517      C1524   1.507       .  S
C1518      C1519   1.406       .  A
C1518      H1523   1.078       .  S
C1519      C1520   1.423       .  A
C1520      C1521   1.506       .  S
C1521      H1525   1.111       .  S
C1521      H1526   1.109       .  S
C1521      H1527   1.100       .  S
C1524      H1528   1.111       .  S
C1524      H1529   1.110       .  S
C1524      H1530   1.111       .  S
C1531      C1532   1.404       .  A
C1531      C1536   1.404       .  A
C1531      H1538   1.084       .  S
C1532      C1533   1.424       .  A
C1533      C1534   1.405       .  A
C1533      C1540   1.510       .  S
C1534      C1535   1.403       .  A
C1534      H1539   1.084       .  S
C1535      C1536   1.423       .  A
C1536      C1537   1.510       .  S
C1537      H1541   1.111       .  S
C1537      H1542   1.110       .  S
C1537      H1543   1.111       .  S
C1540      H1544   1.110       .  S
C1540      H1545   1.110       .  S
C1540      H1546   1.111       .  S
C1547      C3780   1.396   1_455  A
C1547      C1552   1.403       .  A
C1547      H1554   1.084       .  S
C1548      C3779   1.396       .  A
C1548      C2107   1.424       .  A
C1549      C2106   1.424       .  A
C1549      C1550   1.402   1_556  A
C1549      C1556   1.510       .  S
C1550      C3783   1.394       .  A
C1550      H1555   1.084       .  S
C1551      C3782   1.394   1_455  A
C1551      C2110   1.421   1_554  A
C1552      C2109   1.421       .  A
C1552      C1553   1.509       .  S
C1553      H1557   1.111       .  S
C1553      H1558   1.110       .  S
C1553      H2117   1.109       .  S
C1556      H2118   1.109       .  S
C1556      H1561   1.109       .  S
C1556      H1562   1.111   1_556  S
H1559      C2111   1.109   1_554  S
H1560      C2114   1.109       .  S
C1563      C1564   1.405       .  A
C1563      C1568   1.410       .  A
C1563      H1570   1.085       .  S
C1564      C3797   1.412       .  A
C1565      C3796   1.412   1_455  A
C1565      C1566   1.394       .  A
C1565      C1572   1.506       .  S
C1566      C1567   1.401       .  A
C1566      H1571   1.079       .  S
C1567      C3800   1.419   1_455  A
C1568      C3799   1.419       .  A
C1568      C1569   1.506       .  S
C1569      H1573   1.111       .  S
C1569      H1574   1.110       .  S
C1569      H1575   1.111       .  S
C1572      H1576   1.106       .  S
C1572      H1577   1.106       .  S
C1572      H1578   1.111       .  S
C1579      C1580   1.403       .  A
C1579      C1584   1.398       .  A
C1579      H1586   1.084       .  S
C1580      C1581   1.419       .  A
C1581      C1582   1.403       .  A
C1581      C1588   1.500       .  S
C1582      C1583   1.397       .  A
C1582      H1587   1.084       .  S
C1583      C1584   1.412       .  A
C1584      C1585   1.502   1_565  S
C1585      H1589   1.111       .  S
C1585      H1591   1.104       .  S
C1588      H1592   1.110       .  S
C1588      H1593   1.108       .  S
C1588      H1594   1.111       .  S
C1595      C1596   1.406       .  A
C1595      C1600   1.409       .  A
C1595      H1602   1.084       .  S
C1596      C1597   1.412       .  A
C1597      C1598   1.386       .  A
C1597      C1604   1.509       .  S
C1598      C1599   1.401       .  A
C1598      H1603   1.084       .  S
C1599      C1600   1.413       .  A
C1600      C1601   1.505       .  S
C1601      H1605   1.111       .  S
C1601      H1606   1.110       .  S
C1601      H1607   1.110       .  S
C1604      H1608   1.105       .  S
C1604      H3841   1.107       .  S
C1604      H3842   1.111       .  S
H1609      C3836   1.107       .  S
H1610      C3836   1.111       .  S
C1611      C1612   1.404       .  A
C1611      C1616   1.405       .  A
C1612      C1613   1.424       .  A
C1613      C1614   1.415       .  A
C1613      C1620   1.507       .  S
C1614      C1615   1.408       .  A
C1614      H1619   1.084       .  S
C1615      C3360   1.503   1_455  S
C1615      C1616   1.419       .  A
C1616      C1617   1.504       .  S
C1617      H1621   1.110       .  S
C1617      H3854   1.109   1_455  S
C1617      H3855   1.106   1_455  S
C1620      H1624   1.110       .  S
C1620      H1625   1.105       .  S
C1620      H1626   1.111       .  S
H1622      C3849   1.109       .  S
H1623      C3849   1.106       .  S
C1627      C1628   1.399       .  A
C1627      C1632   1.400       .  A
C1627      H1634   1.080       .  S
C1628      C1629   1.414       .  A
C1629      C1630   1.405       .  A
C1629      C1636   1.504       .  S
C1630      C1631   1.406       .  A
C1630      H1635   1.085       .  S
C1631      C1632   1.415       .  A
C1632      C1633   1.507       .  S
C1633      H1637   1.111       .  S
C1633      H1638   1.109       .  S
C1633      H1639   1.110       .  S
C1636      H1640   1.110       .  S
C1636      H1641   1.104       .  S
C1636      H1642   1.110       .  S
C1643      C2202   1.406       .  A
C1643      C1648   1.414       .  A
C1643      H1650   1.084       .  S
C1644      C2201   1.406       .  A
C1644      C1645   1.410       .  A
C1645      C1646   1.392   1_554  A
C1645      C1652   1.510       .  S
C1646      C2205   1.406       .  A
C1646      H1651   1.083       .  S
C1647      C2204   1.406       .  A
C1647      C1648   1.415       .  A
C1648      C1649   1.500       .  S
C1649      H1653   1.111       .  S
C1649      H1654   1.108       .  S
C1649      H1655   1.110       .  S
C1652      H1656   1.102       .  S
C1652      H1657   1.109       .  S
C1652      H1658   1.111       .  S
C1659      C1660   1.404       .  A
C1659      C1664   1.409       .  A
C1659      H1666   1.084       .  S
C1660      C1661   1.415       .  A
C1661      C1662   1.408       .  A
C1661      C1668   1.508       .  S
C1662      C1663   1.408       .  A
C1662      H1667   1.084       .  S
C1663      C1664   1.418       .  A
C1664      C1665   1.504       .  S
C1665      H1669   1.111       .  S
C1665      H1670   1.107       .  S
C1665      H1671   1.110       .  S
C1668      H1672   1.111       .  S
C1668      H1673   1.109       .  S
C1668      H1674   1.111       .  S
O1675      C1683   1.265       .  A
O1675     Co1695   1.889       .  S
O1676      C1684   1.246       .  A
O1676     Co1696   1.932       .  S
O1677      C1685   1.268       .  A
O1677     Co1697   2.055       .  S
O1678      C1686   1.279       .  A
O1678     Co1698   2.030       .  S
O1679      C1685   1.245       .  A
O1679     Co1696   1.934       .  S
O1680      C1686   1.274       .  A
O1680     Co1695   1.989       .  S
O1681      C1684   1.273       .  A
O1681     Co1698   2.050       .  S
O1682      C1683   1.293       .  A
O1682     Co1697   2.097       .  S
C1683      C2138   1.485       .  S
C1684      C2106   1.475       .  S
C1685      C2205   1.491       .  S
C1686      C4405   1.503       .  S
O1687      C1700   1.260       .  A
O1687     Co1695   2.003       .  S
O1688      C1701   1.277       .  A
O1688     Co1696   2.026       .  S
O1689      C1702   1.270       .  A
O1689     Co1697   1.913       .  S
O1690      C1703   1.256       .  A
O1690     Co1698   1.938       .  S
O1691      C1703   1.270       .  A
O1691     Co1696   2.027       .  S
O1692      C1702   1.294       .  A
O1692     Co1695   2.094       .  S
O1693      C1700   1.255       .  A
O1693     Co1698   1.978       .  S
O1694      C1701   1.267       .  A
O1694     Co1697   1.976       .  S
Co1695     O1699   2.003       .  S
Co1696     O1699   2.010       .  S
Co1697     O1699   2.028       .  S
Co1698     O1699   2.030       .  S
C1700      C2122   1.477       .  S
C1701      C2186   1.476       .  S
C1702      C2218   1.488       .  S
C1703      C2157   1.473       .  S
O1704      C1712   1.248       .  A
O1704     Co1724   1.939       .  S
O1705      C1713   1.250       .  A
O1705     Co1725   1.997       .  S
O1706      C1714   1.250   1_655  A
O1706     Co3958   1.972       .  S
O1707      C1715   1.282       .  A
O1707     Co1727   2.051       .  S
O1708      C3946   1.258       .  A
O1708     Co1725   1.990       .  S
O1709      C1715   1.248       .  A
O1709     Co1724   1.913       .  S
O1710      C1713   1.240       .  A
O1710     Co1727   1.960       .  S
O1711      C1712   1.269       .  A
O1711     Co1726   2.032       .  S
C1712      C2026   1.472       .  S
C1714      O3940   1.258   1_455  A
C1714      C2074   1.481       .  S
C1715      C2058   1.491       .  S
O1716      C1729   1.259       .  A
O1716     Co1724   1.994       .  S
O1717      C1730   1.286       .  A
O1717     Co1725   2.024       .  S
O1718      C1731   1.256       .  A
O1718     Co1726   1.985       .  S
O1719      C1732   1.282       .  A
O1719     Co1727   1.940       .  S
O1720      C1732   1.287       .  A
O1720     Co1725   2.036       .  S
O1721      C1731   1.266       .  A
O1721     Co1724   2.005       .  S
O1722      C1729   1.260       .  A
O1722     Co1727   1.994       .  S
O1723      C1730   1.275       .  A
O1723     Co1726   1.931       .  S
Co1724     O1728   2.053       .  S
Co1725     O1728   2.225       .  S
Co1726     O3938   1.972       .  S
Co1726     O1728   1.974       .  S
Co1727     O1728   1.950       .  S
C1729      C2093   1.493       .  S
C1730      C2010   1.478       .  S
C1731      C2154   1.467       .  S
C1732      C2042   1.501       .  S
O1733      C1741   1.253       .  A
O1733     Co1753   1.972       .  S
O1734      C1742   1.280       .  A
O1734     Co1754   2.046       .  S
O1735      C1743   1.251       .  A
O1735     Co1755   2.003       .  S
O1736      C1744   1.248       .  A
O1736     Co1756   1.944       .  S
O1737      C1743   1.247       .  A
O1737     Co1754   1.992       .  S
O1738      C1744   1.267       .  A
O1738     Co1753   2.030       .  S
O1739      C1742   1.256       .  A
O1739     Co1756   1.912       .  S
O1740      C1741   1.260       .  A
O1740     Co1755   1.994       .  S
C1741      C4229   1.483   1_455  S
C1742      C1914   1.488   1_565  S
C1744      C2109   1.472       .  S
O1745      C1758   1.259       .  A
O1745     Co1753   1.983       .  S
O1746      C1759   1.282       .  A
O1746     Co1754   1.913       .  S
O1747      C1760   1.288       .  A
O1747     Co1755   2.020       .  S
O1748      C1761   1.256       .  A
O1748     Co1756   1.981       .  S
O1749      C1761   1.263       .  A
O1749     Co1754   2.007       .  S
O1750      C1760   1.274       .  A
O1750     Co1753   1.938       .  S
O1751      C1758   1.270       .  A
O1751     Co1756   2.028       .  S
O1752      C1759   1.298       .  A
O1752     Co1755   2.065       .  S
Co1753     O1757   1.992       .  S
Co1754     O1757   1.949       .  S
Co1755     O1757   2.228       .  S
Co1756     O1757   2.056       .  S
C1758      C1965   1.495       .  S
C1759      C1933   1.502       .  S
C1760      C2125   1.489       .  S
C1761      C1981   1.497       .  S
O1762      C1770   1.255       .  A
O1762     Co1782   1.991       .  S
O1763      C1771   1.277       .  A
O1763     Co1783   2.040       .  S
O1764      C1772   1.255       .  A
O1764     Co1784   1.944       .  S
O1765      C1773   1.257       .  A
O1765     Co1785   1.873       .  S
O1766      C1772   1.275       .  A
O1766     Co1783   2.045       .  S
O1767      C1773   1.306       .  A
O1767     Co1782   2.149       .  S
O1768      C1771   1.271       .  A
O1768     Co1785   1.979       .  S
O1769      C1770   1.254       .  A
O1769     Co1784   1.958       .  S
C1770      C1885   1.464       .  S
C1772      C1930   1.477       .  S
C1773      C2077   1.494       .  S
O1774      C1787   1.260       .  A
O1774     Co1782   1.880       .  S
O1775      C1788   1.256       .  A
O1775     Co1783   1.957       .  S
O1776      C1789   1.276       .  A
O1776     Co1784   2.016       .  S
O1777      C1790   1.259       .  A
O1777     Co1785   1.978       .  S
O1778      C1790   1.255       .  A
O1778     Co1783   1.978       .  S
O1779      C1789   1.270       .  A
O1779     Co1782   1.973       .  S
O1780      C1787   1.302       .  A
O1780     Co1785   2.118       .  S
O1781      C1788   1.275       .  A
O1781     Co1784   2.028       .  S
Co1782     O1786   2.022       .  S
Co1783     O1786   2.053       .  S
Co1784     O1786   2.019       .  S
Co1785     O1786   1.979       .  S
C1787      C1898   1.486       .  S
C1788      C2090   1.495       .  S
C1789      C2189   1.480       .  S
C1790      C1917   1.482       .  S
O1791      C1799   1.273       .  A
O1791     Co1811   2.051       .  S
O1792      C1800   1.271       .  A
O1792     Co1812   1.919       .  S
O1793      C1801   1.274       .  A
O1793     Co1813   1.903       .  S
O1794      C1802   1.264       .  A
O1794     Co1814   1.973       .  S
O1795      C1801   1.296       .  A
O1795     Co1812   2.054       .  S
O1796      C1802   1.271       .  A
O1796     Co1811   2.032       .  S
O1797      C1800   1.279       .  A
O1797     Co1814   2.024       .  S
O1798      C1799   1.255       .  A
O1798     Co1813   1.999       .  S
C1799      C4085   1.502   1_455  S
C1800      C1901   1.488       .  S
C1801      C2013   1.461       .  S
C1802      C1949   1.506       .  S
O1803      C1816   1.253       .  A
O1803     Co1811   1.961       .  S
O1804      C1817   1.254       .  A
O1804     Co1812   1.992       .  S
O1805      C1818   1.273       .  A
O1805     Co1813   2.038       .  S
O1806      C1819   1.259       .  A
O1806     Co1814   1.994       .  S
O1807      C1819   1.249       .  A
O1807     Co1812   1.957       .  S
O1808      C1818   1.245       .  A
O1808     Co1811   1.946       .  S
O1809      C1816   1.258       .  A
O1809     Co1814   1.989       .  S
O1810      C1817   1.252       .  A
O1810     Co1813   1.994       .  S
Co1811     O1815   2.064       .  S
Co1812     O1815   2.074       .  S
Co1813     O1815   1.943       .  S
Co1814     O1815   2.117       .  S
C1816      C1882   1.478       .  S
C1817      C1962   1.495       .  S
C1818      C2029   1.488       .  S
C1819      C1866   1.479       .  S
O1820      C1828   1.263       .  A
O1820     Co1840   1.895       .  S
O1821      C1829   1.252       .  A
O1821     Co1841   1.940       .  S
O1822      C1830   1.268       .  A
O1822     Co1842   2.033       .  S
O1823      C1831   1.285       .  A
O1823     Co1843   2.055       .  S
O1824      C1830   1.247       .  A
O1824     Co1841   1.942       .  S
O1825      C1831   1.270       .  A
O1825     Co1840   1.980       .  S
O1826      C1829   1.274       .  A
O1826     Co1843   2.043       .  S
O1827      C1828   1.288       .  A
O1827     Co1842   2.092       .  S
C1828      C1994   1.484       .  S
C1829      C2045   1.479       .  S
C1830      C2202   1.472       .  S
O1832      C1845   1.260       .  A
O1832     Co1840   1.978       .  S
O1833      C1846   1.276       .  A
O1833     Co1841   2.031       .  S
O1834      C1847   1.270       .  A
O1834     Co1842   1.925       .  S
O1835      C1848   1.257       .  A
O1835     Co1843   1.963       .  S
O1836      C1848   1.274       .  A
O1836     Co1841   2.023       .  S
O1837      C1847   1.291       .  A
O1837     Co1840   2.088       .  S
O1838      C1845   1.252       .  A
O1838     Co1843   1.982       .  S
O1839      C1846   1.261       .  A
O1839     Co1842   1.961       .  S
Co1840     O1844   2.008       .  S
Co1841     O1844   2.033       .  S
Co1842     O1844   2.042       .  S
Co1843     O1844   2.051       .  S
C1845      C2061   1.477       .  S
C1846      C1869   1.472       .  S
C1847      C2221   1.496       .  S
C1848      C1978   1.495       .  S
C1849      C1850   1.411       .  A
C1849      C1854   1.411       .  A
C1849      H1856   1.083       .  S
C1850      C1851   1.425       .  A
C1851      C1852   1.418       .  A
C1851      C1858   1.507       .  S
C1852      C1853   1.407       .  A
C1852      H4089   1.084       .  S
C1853      C4031   1.502       .  S
C1853      C1854   1.415       .  A
C1854      C1855   1.505       .  S
C1855      H1859   1.111       .  S
C1855      H1860   1.109       .  S
C1855      H1861   1.110       .  S
H1857      C4084   1.084   1_455  S
C1858      H1864   1.111       .  S
C1865      C1866   1.401       .  A
C1865      C1870   1.402       .  A
C1865      H1872   1.084       .  S
C1866      C1867   1.422       .  A
C1867      C1868   1.404       .  A
C1867      C1874   1.508       .  S
C1868      C1869   1.398       .  A
C1868      H1873   1.084       .  S
C1869      C1870   1.414       .  A
C1870      C1871   1.505       .  S
C1871      H1875   1.111       .  S
C1871      H1876   1.109       .  S
C1871      H1877   1.109       .  S
C1874      H1878   1.107       .  S
C1874      H1879   1.110       .  S
C1874      H1880   1.111       .  S
C1881      C1882   1.408       .  A
C1881      C1886   1.399       .  A
C1881      H1888   1.084       .  S
C1882      C1883   1.420       .  A
C1883      C1884   1.394       .  A
C1883      C1890   1.510       .  S
C1884      C1885   1.398       .  A
C1884      H1889   1.085       .  S
C1885      C1886   1.408       .  A
C1886      C1887   1.503       .  S
C1887      H1891   1.111       .  S
C1887      H1892   1.110       .  S
C1887      H1893   1.103       .  S
C1890      H1894   1.110       .  S
C1890      H1895   1.110       .  S
C1890      H1896   1.111       .  S
C1897      C1902   1.393       .  A
C1897      H1904   1.084       .  S
C1898      C1899   1.425       .  A
C1899      C1906   1.508       .  S
C1900      C1901   1.402       .  A
C1900      H1905   1.084       .  S
C1901      C1902   1.426       .  A
C1902      C1903   1.509       .  S
C1903      H1907   1.111       .  S
C1903      H1908   1.110       .  S
C1903      H1909   1.109       .  S
C1906      H1910   1.110       .  S
C1906      H1911   1.109       .  S
C1906      H1912   1.111       .  S
C1913      C1918   1.384   1_564  A
C1913      H1920   1.084       .  S
C1915      C1916   1.415       .  A
C1915      C1922   1.503       .  S
C1916      H1921   1.083       .  S
C1918      C1919   1.515       .  S
C1919      H1923   1.111   1_545  S
C1919      H1924   1.109   1_545  S
C1919      H1925   1.109       .  S
C1922      H1926   1.110       .  S
C1922      H1927   1.111       .  S
C1922      H1928   1.111       .  S
C1929      C1930   1.396       .  A
C1929      H1936   1.084       .  S
C1930      C1931   1.414       .  A
C1931      C1932   1.404       .  A
C1931      C1938   1.509       .  S
C1932      H1937   1.083       .  S
C1933      C1934   1.428       .  A
C1934      C1935   1.503       .  S
C1935      H1939   1.111       .  S
C1935      H1940   1.110       .  S
C1935      H1941   1.104       .  S
C1938      H1942   1.110       .  S
C1938      H1943   1.109       .  S
C1938      H1944   1.111       .  S
C1945      C1946   1.411       .  A
C1945      C1950   1.412       .  A
C1945      H1952   1.083       .  S
C1946      C1947   1.419       .  A
C1947      C1948   1.407       .  A
C1947      C1954   1.504       .  S
C1948      C1949   1.406       .  A
C1948      H1953   1.077       .  S
C1949      C1950   1.420       .  A
C1950      C1951   1.508       .  S
C1951      H1955   1.111       .  S
C1951      H1956   1.111       .  S
C1951      H1957   1.109       .  S
C1954      H1958   1.108       .  S
C1954      H1959   1.110       .  S
C1954      H1960   1.110       .  S
C1961      C1962   1.407       .  A
C1961      C1966   1.407       .  A
C1961      H1968   1.084       .  S
C1962      C1963   1.420       .  A
C1963      C1964   1.406       .  A
C1963      C1970   1.509       .  S
C1964      C1965   1.407       .  A
C1964      H1969   1.084       .  S
C1965      C1966   1.418       .  A
C1966      C1967   1.506       .  S
C1967      H1971   1.111       .  S
C1967      H1972   1.107       .  S
C1967      H1973   1.109       .  S
C1970      H1974   1.110       .  S
C1970      H1975   1.110       .  S
C1970      H1976   1.111       .  S
C1977      C1978   1.400       .  A
C1977      C1982   1.401       .  A
C1977      H1984   1.081       .  S
C1978      C1979   1.422       .  A
C1979      C1980   1.411       .  A
C1979      C1986   1.508       .  S
C1980      C1981   1.405       .  A
C1980      H1985   1.083       .  S
C1981      C1982   1.427       .  A
C1982      C1983   1.513       .  S
C1983      H1987   1.111       .  S
C1983      H1988   1.111       .  S
C1983      H1989   1.110       .  S
C1986      H1990   1.109       .  S
C1986      H1991   1.110       .  S
C1986      H1992   1.111       .  S
C1993      C1994   1.401       .  A
C1993      C1998   1.396       .  A
C1993      H2000   1.085       .  S
C1994      C1995   1.425       .  A
C1995      C1996   1.407       .  A
C1995      C2002   1.510       .  S
C1996      C1997   1.403       .  A
C1996      H2001   1.085       .  S
C1997      C3973   1.483       .  S
C1997      C1998   1.413       .  A
C1998      C4231   1.499       .  S
C1999      C4230   1.499   1_455  S
C1999      H2003   1.111       .  S
C1999      H2004   1.109       .  S
C1999      H2005   1.108       .  S
C2002      H2006   1.110       .  S
C2002      H2007   1.101       .  S
C2002      H2008   1.110       .  S
C2009      C4246   1.397       .  A
C2009      H2016   1.080       .  S
C2010      C4243   1.413       .  A
C2011      C4242   1.413   1_455  A
C2011      C2018   1.506       .  S
C2012      C2013   1.404       .  A
C2012      H2017   1.085       .  S
C2013      C2014   1.403       .  A
C2014      C4241   1.397   1_455  A
C2014      C2015   1.507   1_455  S
C2015      H4251   1.111       .  S
C2015      H4252   1.111       .  S
C2015      H2021   1.110   1_655  S
C2018      H2022   1.110       .  S
C2018      H2023   1.110       .  S
C2018      H2024   1.111       .  S
H2019      C4247   1.111       .  S
H2020      C4247   1.111       .  S
C2025      C4258   1.393   1_455  A
C2025      C2030   1.403       .  A
C2025      H2032   1.085       .  S
C2026      C4257   1.393       .  A
C2026      C2027   1.421       .  A
C2027      C2028   1.401       .  A
C2027      C2034   1.511       .  S
C2028      C4261   1.398       .  A
C2028      H2033   1.082       .  S
C2029      C4260   1.398   1_455  A
C2029      C2030   1.430       .  A
C2030      C2031   1.510       .  S
C2031      H2035   1.111       .  S
C2031      H2036   1.110       .  S
C2031      H2037   1.109       .  S
C2034      H2038   1.108       .  S
C2034      H2039   1.106       .  S
C2034      H2040   1.111       .  S
C2041      C2046   1.407   1_556  A
C2041      H2048   1.084       .  S
C2043      C2044   1.407       .  A
C2043      C2050   1.505       .  S
C2044      H2049   1.085       .  S
C2046      C2047   1.507   1_554  S
C2047      H2051   1.111       .  S
C2047      H2053   1.109   1_556  S
C2050      H2054   1.110       .  S
C2050      H2056   1.111       .  S
C2057      C2058   1.407       .  A
C2057      C2062   1.413       .  A
C2057      H2064   1.083       .  S
C2058      C2059   1.435       .  A
C2059      C2060   1.386       .  A
C2059      C2066   1.520       .  S
C2063      H2068   1.110       .  S
C2063      H2069   1.109       .  S
C2066      H2070   1.107       .  S
C2066      H2071   1.108       .  S
C2066      H2072   1.110       .  S
C2073      C2074   1.399       .  A
C2073      C2078   1.400       .  A
C2073      H2080   1.085       .  S
C2074      C2075   1.413       .  A
C2075      C2076   1.409       .  A
C2075      C2082   1.507       .  S
C2076      C2077   1.406       .  A
C2076      H2081   1.078       .  S
C2077      C2078   1.423       .  A
C2078      C2079   1.506       .  S
C2079      H2083   1.111       .  S
C2079      H2084   1.109       .  S
C2079      H2085   1.100       .  S
C2082      H2086   1.111       .  S
C2082      H2087   1.110       .  S
C2082      H2088   1.111       .  S
C2089      C2090   1.404       .  A
C2089      C2094   1.404       .  A
C2089      H2096   1.084       .  S
C2090      C2091   1.424       .  A
C2091      C2092   1.405       .  A
C2091      C2098   1.510       .  S
C2092      C2093   1.403       .  A
C2092      H2097   1.084       .  S
C2093      C2094   1.423       .  A
C2094      C2095   1.510       .  S
C2095      H2099   1.111       .  S
C2095      H2100   1.110       .  S
C2095      H2101   1.111       .  S
C2098      H2102   1.110       .  S
C2098      H2103   1.110       .  S
C2098      H2104   1.111       .  S
C2105      C4338   1.396   1_455  A
C2105      C2110   1.403       .  A
C2105      H2112   1.084       .  S
C2106      C4337   1.396       .  A
C2107      C2108   1.402       .  A
C2107      C2114   1.510       .  S
C2108      C4341   1.394       .  A
C2108      H2113   1.084       .  S
C2109      C4340   1.394   1_455  A
C2110      C2111   1.509       .  S
C2111      H2115   1.111       .  S
C2111      H2116   1.110   1_556  S
C2114      H2119   1.109       .  S
C2114      H2120   1.111       .  S
C2121      C2122   1.405       .  A
C2121      C2126   1.410       .  A
C2121      H2128   1.085       .  S
C2122      C4355   1.412       .  A
C2123      C4354   1.412   1_455  A
C2123      C2124   1.394       .  A
C2123      C2130   1.506       .  S
C2124      C2125   1.401       .  A
C2124      H2129   1.079       .  S
C2125      C4358   1.419   1_455  A
C2126      C4357   1.419       .  A
C2126      C2127   1.506       .  S
C2127      H2131   1.111       .  S
C2127      H2132   1.110       .  S
C2127      H2133   1.111       .  S
C2130      H2134   1.106       .  S
C2130      H2135   1.106       .  S
C2130      H2136   1.111       .  S
C2137      C2138   1.403       .  A
C2137      C2142   1.398       .  A
C2137      H2144   1.084       .  S
C2138      C2139   1.419       .  A
C2139      C2140   1.403       .  A
C2139      C2146   1.500       .  S
C2140      C2141   1.397       .  A
C2140      H2145   1.084       .  S
C2141      C2142   1.412       .  A
C2142      C2143   1.502   1_565  S
C2143      H2147   1.111       .  S
C2143      H2149   1.104       .  S
C2146      H2150   1.110       .  S
C2146      H2151   1.108       .  S
C2146      H2152   1.111       .  S
C2153      C2154   1.406       .  A
C2153      C2158   1.409       .  A
C2153      H2160   1.084       .  S
C2154      C2155   1.412       .  A
C2155      C2156   1.386       .  A
C2155      C2162   1.509       .  S
C2156      C2157   1.401       .  A
C2156      H2161   1.084       .  S
C2157      C2158   1.413       .  A
C2158      C2159   1.505       .  S
C2159      H2163   1.111       .  S
C2159      H2164   1.110       .  S
C2159      H2165   1.110       .  S
C2162      H2166   1.105       .  S
C2162      H4399   1.107       .  S
C2162      H4400   1.111       .  S
H2167      C4394   1.107       .  S
H2168      C4394   1.111       .  S
C2169      C2170   1.404       .  A
C2169      C2174   1.405       .  A
C2170      C2171   1.424       .  A
C2171      C2172   1.415       .  A
C2171      C2178   1.507       .  S
C2172      C2173   1.408       .  A
C2172      H2177   1.084       .  S
C2173      C3918   1.503   1_455  S
C2173      C2174   1.419       .  A
C2174      C2175   1.504       .  S
C2175      H2179   1.110       .  S
C2175      H4412   1.109   1_455  S
C2175      H4413   1.106   1_455  S
C2178      H2182   1.110       .  S
C2178      H2183   1.105       .  S
C2178      H2184   1.111       .  S
H2180      C4407   1.109       .  S
H2181      C4407   1.106       .  S
C2185      C2186   1.399       .  A
C2185      C2190   1.400       .  A
C2185      H2192   1.080       .  S
C2186      C2187   1.414       .  A
C2187      C2188   1.405       .  A
C2187      C2194   1.504       .  S
C2188      C2189   1.406       .  A
C2188      H2193   1.085       .  S
C2189      C2190   1.415       .  A
C2190      C2191   1.507       .  S
C2191      H2195   1.111       .  S
C2191      H2196   1.109       .  S
C2191      H2197   1.110       .  S
C2194      H2198   1.110       .  S
C2194      H2199   1.104       .  S
C2194      H2200   1.110       .  S
C2201      C2206   1.414   1_554  A
C2201      H2208   1.084       .  S
C2202      C2203   1.410       .  A
C2203      C2204   1.392       .  A
C2203      C2210   1.510       .  S
C2204      H2209   1.083       .  S
C2205      C2206   1.415       .  A
C2206      C2207   1.500       .  S
C2207      H2211   1.111       .  S
C2207      H2212   1.108       .  S
C2207      H2213   1.110       .  S
C2210      H2214   1.102       .  S
C2210      H2215   1.109       .  S
C2210      H2216   1.111       .  S
C2217      C2218   1.404       .  A
C2217      C2222   1.409       .  A
C2217      H2224   1.084       .  S
C2218      C2219   1.415       .  A
C2219      C2220   1.408       .  A
C2219      C2226   1.508       .  S
C2220      C2221   1.408       .  A
C2220      H2225   1.084       .  S
C2221      C2222   1.418       .  A
C2222      C2223   1.504       .  S
C2223      H2227   1.111       .  S
C2223      H2228   1.107       .  S
C2223      H2229   1.110       .  S
C2226      H2230   1.111       .  S
C2226      H2231   1.109       .  S
C2226      H2232   1.111       .  S
O2233      C2241   1.265       .  A
O2233     Co2253   1.889       .  S
O2234      C2242   1.246       .  A
O2234     Co2254   1.932       .  S
O2235      C2243   1.268       .  A
O2235     Co2255   2.055       .  S
O2236      C2244   1.279       .  A
O2236     Co2256   2.030       .  S
O2237      C2243   1.245       .  A
O2237     Co2254   1.934       .  S
O2238      C2244   1.274       .  A
O2238     Co2253   1.989       .  S
O2239      C2242   1.273       .  A
O2239     Co2256   2.050       .  S
O2240      C2241   1.293       .  A
O2240     Co2255   2.097       .  S
C2241      C2696   1.485       .  S
C2242      C2664   1.475       .  S
C2243      C2763   1.491       .  S
O2245      C2258   1.260       .  A
O2245     Co2253   2.003       .  S
O2246      C2259   1.277       .  A
O2246     Co2254   2.026       .  S
O2247      C2260   1.270       .  A
O2247     Co2255   1.913       .  S
O2248      C2261   1.256       .  A
O2248     Co2256   1.938       .  S
O2249      C2261   1.270       .  A
O2249     Co2254   2.027       .  S
O2250      C2260   1.294       .  A
O2250     Co2253   2.094       .  S
O2251      C2258   1.255       .  A
O2251     Co2256   1.978       .  S
O2252      C2259   1.267       .  A
O2252     Co2255   1.976       .  S
Co2253     O2257   2.003       .  S
Co2254     O2257   2.010       .  S
Co2255     O2257   2.028       .  S
Co2256     O2257   2.030       .  S
C2258      C2680   1.477       .  S
C2259      C2744   1.476       .  S
C2260      C2776   1.488       .  S
C2261      C2715   1.473       .  S
O2262      C2270   1.248       .  A
O2262     Co2282   1.939       .  S
O2263      C2271   1.250       .  A
O2263     Co2283   1.997       .  S
O2264      C2272   1.250       .  A
O2265      C2273   1.282       .  A
O2265     Co2285   2.051       .  S
O2266     Co2283   1.990       .  S
O2267      C2273   1.248       .  A
O2267     Co2282   1.913       .  S
O2268      C2271   1.240       .  A
O2268     Co2285   1.960       .  S
O2269      C2270   1.269       .  A
O2269     Co2284   2.032       .  S
C2270      C2584   1.472       .  S
C2271      C3815   1.473   1_545  S
C2272      C2632   1.481       .  S
C2273      C2616   1.491       .  S
O2274      C2287   1.259       .  A
O2274     Co2282   1.994       .  S
O2275      C2288   1.286       .  A
O2275     Co2283   2.024       .  S
O2276      C2289   1.256       .  A
O2276     Co2284   1.985       .  S
O2277      C2290   1.282       .  A
O2277     Co2285   1.940       .  S
O2278      C2290   1.287       .  A
O2278     Co2283   2.036       .  S
O2279      C2289   1.266       .  A
O2279     Co2282   2.005       .  S
O2280      C2287   1.260       .  A
O2280     Co2285   1.994       .  S
O2281      C2288   1.275       .  A
O2281     Co2284   1.931       .  S
Co2282     O2286   2.053       .  S
Co2283     O2286   2.225       .  S
Co2284     O2286   1.974       .  S
Co2285     O2286   1.950       .  S
C2287      C2651   1.493       .  S
C2288      C2568   1.478       .  S
C2289      C2712   1.467       .  S
C2290      C2600   1.501       .  S
O2291      C2299   1.253       .  A
O2291     Co2311   1.972       .  S
O2292      C2300   1.280       .  A
O2292     Co2312   2.046       .  S
O2293      C2301   1.251       .  A
O2293     Co2313   2.003       .  S
O2294      C2302   1.248       .  A
O2294     Co2314   1.944       .  S
O2295      C2301   1.247       .  A
O2295     Co2312   1.992       .  S
O2296      C2302   1.267       .  A
O2296     Co2311   2.030       .  S
O2297      C2300   1.256       .  A
O2297     Co2314   1.912       .  S
O2298      C2299   1.260       .  A
O2298     Co2313   1.994       .  S
C2300      C2472   1.488       .  S
C2301      C3620   1.509       .  S
C2302      C2667   1.472       .  S
O2303      C2316   1.259       .  A
O2303     Co2311   1.983       .  S
O2304      C2317   1.282       .  A
O2304     Co2312   1.913       .  S
O2305      C2318   1.288       .  A
O2305     Co2313   2.020       .  S
O2306      C2319   1.256       .  A
O2306     Co2314   1.981       .  S
O2307      C2319   1.263       .  A
O2307     Co2312   2.007       .  S
O2308      C2318   1.274       .  A
O2308     Co2311   1.938       .  S
O2309      C2316   1.270       .  A
O2309     Co2314   2.028       .  S
O2310      C2317   1.298       .  A
O2310     Co2313   2.065       .  S
Co2311     O2315   1.992       .  S
Co2312     O2315   1.949       .  S
Co2313     O2315   2.228       .  S
Co2314     O2315   2.056       .  S
C2316      C2523   1.495       .  S
C2317      C2491   1.502       .  S
C2318      C2683   1.489       .  S
C2319      C2539   1.497       .  S
O2320      C2328   1.255       .  A
O2320     Co2340   1.991       .  S
O2321      C2329   1.277       .  A
O2321     Co2341   2.040       .  S
O2322      C2330   1.255       .  A
O2322     Co2342   1.944       .  S
O2323      C2331   1.257       .  A
O2323     Co2343   1.873       .  S
O2324      C2330   1.275       .  A
O2324     Co2341   2.045       .  S
O2325      C2331   1.306       .  A
O2325     Co2340   2.149       .  S
O2326      C2329   1.271       .  A
O2326     Co2343   1.979       .  S
O2327      C2328   1.254       .  A
O2327     Co2342   1.958       .  S
C2328      C2443   1.464       .  S
C2329      C3844   1.509   1_545  S
C2330      C2488   1.477       .  S
C2331      C2635   1.494       .  S
O2332      C2345   1.260       .  A
O2332     Co2340   1.880       .  S
O2333      C2346   1.256       .  A
O2333     Co2341   1.957       .  S
O2334      C2347   1.276       .  A
O2334     Co2342   2.016       .  S
O2335      C2348   1.259       .  A
O2335     Co2343   1.978       .  S
O2336      C2348   1.255       .  A
O2336     Co2341   1.978       .  S
O2337      C2347   1.270       .  A
O2337     Co2340   1.973       .  S
O2338      C2345   1.302       .  A
O2338     Co2343   2.118       .  S
O2339      C2346   1.275       .  A
O2339     Co2342   2.028       .  S
Co2340     O2344   2.022       .  S
Co2341     O2344   2.053       .  S
Co2342     O2344   2.019       .  S
Co2343     O2344   1.979       .  S
C2345      C2456   1.486       .  S
C2346      C2648   1.495       .  S
C2347      C2747   1.480       .  S
C2348      C2475   1.482       .  S
O2349      C2357   1.273       .  A
O2349     Co2369   2.051       .  S
O2350      C2358   1.271       .  A
O2350     Co2370   1.919       .  S
O2351      C2359   1.274       .  A
O2351     Co2371   1.903       .  S
O2352      C2360   1.264       .  A
O2352     Co2372   1.973       .  S
O2353      C2359   1.296       .  A
O2353     Co2370   2.054       .  S
O2354      C2360   1.271       .  A
O2354     Co2369   2.032       .  S
O2355      C2358   1.279       .  A
O2355     Co2372   2.024       .  S
O2356      C2357   1.255       .  A
O2356     Co2371   1.999       .  S
C2358      C2459   1.488       .  S
C2359      C2571   1.461       .  S
C2360      C2507   1.506       .  S
O2361      C2374   1.253       .  A
O2361     Co2369   1.961       .  S
O2362      C2375   1.254       .  A
O2362     Co2370   1.992       .  S
O2363      C2376   1.273       .  A
O2363     Co2371   2.038       .  S
O2364      C2377   1.259       .  A
O2364     Co2372   1.994       .  S
O2365      C2377   1.249       .  A
O2365     Co2370   1.957       .  S
O2366      C2376   1.245       .  A
O2366     Co2369   1.946       .  S
O2367      C2374   1.258       .  A
O2367     Co2372   1.989       .  S
O2368      C2375   1.252       .  A
O2368     Co2371   1.994       .  S
Co2369     O2373   2.064       .  S
Co2370     O2373   2.074       .  S
Co2371     O2373   1.943       .  S
Co2372     O2373   2.117       .  S
C2374      C2440   1.478       .  S
C2375      C2520   1.495       .  S
C2376      C2587   1.488       .  S
C2377      C2424   1.479       .  S
O2378      C2386   1.263       .  A
O2378     Co2398   1.895       .  S
O2379      C2387   1.252       .  A
O2379     Co2399   1.940       .  S
O2380      C2388   1.268       .  A
O2380     Co2400   2.033       .  S
O2381      C2389   1.285       .  A
O2381     Co2401   2.055       .  S
O2382      C2388   1.247       .  A
O2382     Co2399   1.942       .  S
O2383      C2389   1.270       .  A
O2383     Co2398   1.980       .  S
O2384      C2387   1.274       .  A
O2384     Co2401   2.043       .  S
O2385      C2386   1.288       .  A
O2385     Co2400   2.092       .  S
C2386      C2552   1.484       .  S
C2387      C2603   1.479       .  S
C2388      C2760   1.472       .  S
C2389      C3524   1.514       .  S
O2390      C2403   1.260       .  A
O2390     Co2398   1.978       .  S
O2391      C2404   1.276       .  A
O2391     Co2399   2.031       .  S
O2392      C2405   1.270       .  A
O2392     Co2400   1.925       .  S
O2393      C2406   1.257       .  A
O2393     Co2401   1.963       .  S
O2394      C2406   1.274       .  A
O2394     Co2399   2.023       .  S
O2395      C2405   1.291       .  A
O2395     Co2398   2.088       .  S
O2396      C2403   1.252       .  A
O2396     Co2401   1.982       .  S
O2397      C2404   1.261       .  A
O2397     Co2400   1.961       .  S
Co2398     O2402   2.008       .  S
Co2399     O2402   2.033       .  S
Co2400     O2402   2.042       .  S
Co2401     O2402   2.051       .  S
C2403      C2619   1.477       .  S
C2404      C2427   1.472       .  S
C2405      C2779   1.496       .  S
C2406      C2536   1.495       .  S
C2407      C2408   1.411       .  A
C2407      C2412   1.411       .  A
C2407      H2414   1.083       .  S
C2408      C3505   1.514   1_545  S
C2408      C2409   1.425       .  A
C2409      C2410   1.418       .  A
C2409      C2416   1.507       .  S
C2410      C2411   1.407       .  A
C2411      C2412   1.415       .  A
C2412      C2413   1.505       .  S
C2413      H2417   1.111       .  S
C2413      H2418   1.109       .  S
C2413      H2419   1.110       .  S
C2416      H3536   1.110       .  S
C2416      H3537   1.109   1_545  S
C2416      H2422   1.111       .  S
H2420      C3532   1.110       .  S
H2421      C3532   1.109       .  S
C2423      C2424   1.401       .  A
C2423      C2428   1.402       .  A
C2423      H2430   1.084       .  S
C2424      C2425   1.422       .  A
C2425      C2426   1.404       .  A
C2425      C2432   1.508       .  S
C2426      C2427   1.398       .  A
C2426      H2431   1.084       .  S
C2427      C2428   1.414       .  A
C2428      C2429   1.505       .  S
C2429      H2433   1.111       .  S
C2429      H2434   1.109       .  S
C2429      H2435   1.109       .  S
C2432      H2436   1.107       .  S
C2432      H2437   1.110       .  S
C2432      H2438   1.111       .  S
C2439      C2440   1.408       .  A
C2439      C2444   1.399       .  A
C2439      H2446   1.084       .  S
C2440      C2441   1.420       .  A
C2441      C2442   1.394       .  A
C2441      C2448   1.510       .  S
C2442      C2443   1.398       .  A
C2442      H2447   1.085       .  S
C2443      C2444   1.408       .  A
C2444      C2445   1.503       .  S
C2445      H2449   1.111       .  S
C2445      H2450   1.110       .  S
C2445      H2451   1.103       .  S
C2448      H2452   1.110       .  S
C2448      H2453   1.110       .  S
C2448      H2454   1.111       .  S
C2455      C3014   1.397       .  A
C2455      C2460   1.393   1_556  A
C2455      H2462   1.084       .  S
C2456      C3013   1.397       .  A
C2456      C2457   1.425       .  A
C2457      C3016   1.408       .  A
C2457      C2464   1.508       .  S
C2458      C3015   1.408       .  A
C2458      C2459   1.402   1_556  A
C2458      H2463   1.084       .  S
C2459      C2460   1.426       .  A
C2460      C2461   1.509       .  S
C2461      H2465   1.111       .  S
C2461      H2466   1.110       .  S
C2461      H2467   1.109       .  S
C2464      H2468   1.110       .  S
C2464      H2469   1.109       .  S
C2464      H2470   1.111       .  S
C2471      C3030   1.409       .  A
C2471      C2476   1.384       .  A
C2471      H2478   1.084       .  S
C2472      C3029   1.409       .  A
C2472      C3589   1.410       .  A
C2473      C3588   1.410       .  A
C2473      C2474   1.415       .  A
C2473      C2480   1.503       .  S
C2474      C3033   1.414   1_554  A
C2474      H2479   1.083   1_554  S
C2475      C3032   1.414       .  A
C2475      C3592   1.415       .  A
C2476      C3591   1.415       .  A
C2476      C2477   1.515       .  S
C2477      H2481   1.111       .  S
C2477      H2482   1.109       .  S
C2477      H2483   1.109       .  S
C2480      H2484   1.110       .  S
C2480      H2485   1.111       .  S
C2480      H2486   1.111       .  S
C2487      C2488   1.396   1_565  A
C2487      C3608   1.409       .  A
C2487      H2494   1.084       .  S
C2488      C2489   1.414       .  A
C2489      C2490   1.404       .  A
C2489      C2496   1.509       .  S
C2490      C3607   1.406   1_545  A
C2490      H2495   1.083       .  S
C2491      C3606   1.406       .  A
C2491      C2492   1.428       .  A
C2492      C3603   1.409       .  A
C2492      C2493   1.503       .  S
C2493      H2497   1.111       .  S
C2493      H2498   1.110       .  S
C2493      H2499   1.104       .  S
C2496      H2500   1.110       .  S
C2496      H2501   1.109       .  S
C2496      H2502   1.111       .  S
C2503      C2504   1.411       .  A
C2503      C2508   1.412       .  A
C2503      H2510   1.083       .  S
C2504      C3417   1.509   1_545  S
C2504      C2505   1.419       .  A
C2505      C2506   1.407       .  A
C2505      C2512   1.504       .  S
C2506      C2507   1.406       .  A
C2506      H2511   1.077       .  S
C2507      C2508   1.420       .  A
C2508      C2509   1.508       .  S
C2509      H2513   1.111       .  S
C2509      H2514   1.111       .  S
C2509      H2515   1.109       .  S
C2512      H2516   1.108       .  S
C2512      H2517   1.110       .  S
C2512      H2518   1.110       .  S
C2519      C2520   1.407       .  A
C2519      C2524   1.407       .  A
C2519      H2526   1.084       .  S
C2520      C2521   1.420       .  A
C2521      C2522   1.406       .  A
C2521      C2528   1.509       .  S
C2522      C2523   1.407       .  A
C2522      H2527   1.084       .  S
C2523      C2524   1.418       .  A
C2524      C2525   1.506       .  S
C2525      H2529   1.111       .  S
C2525      H2530   1.107       .  S
C2525      H2531   1.109       .  S
C2528      H2532   1.110       .  S
C2528      H2533   1.110       .  S
C2528      H2534   1.111       .  S
C2535      C2536   1.400       .  A
C2535      C2540   1.401       .  A
C2535      H2542   1.081       .  S
C2536      C2537   1.422       .  A
C2537      C2538   1.411       .  A
C2537      C2544   1.508       .  S
C2538      C2539   1.405       .  A
C2538      H2543   1.083       .  S
C2539      C2540   1.427       .  A
C2540      C2541   1.513       .  S
C2541      H2545   1.111       .  S
C2541      H2546   1.111       .  S
C2541      H2547   1.110       .  S
C2544      H2548   1.109       .  S
C2544      H2549   1.110       .  S
C2544      H2550   1.111       .  S
C2551      C2552   1.401       .  A
C2551      C2556   1.396       .  A
C2551      H2558   1.085       .  S
C2552      C2553   1.425       .  A
C2553      C2554   1.407       .  A
C2553      C2560   1.510       .  S
C2554      C2555   1.403       .  A
C2554      H2559   1.085       .  S
C2555      C2556   1.413       .  A
C2557      H2561   1.111       .  S
C2557      H2562   1.109       .  S
C2557      H2563   1.108       .  S
C2560      H2564   1.110       .  S
C2560      H2565   1.101       .  S
C2560      H2566   1.110       .  S
C2567      C3126   1.407       .  A
C2567      H2574   1.080       .  S
C2568      C3125   1.407       .  A
C2569      C3128   1.406       .  A
C2569      C2576   1.506       .  S
C2570      C3127   1.406   1_554  A
C2570      C2571   1.404       .  A
C2570      H2575   1.085       .  S
C2571      C2572   1.403       .  A
C2572      C2573   1.507       .  S
C2573      H2579   1.110       .  S
C2576      H2580   1.110       .  S
C2576      H2581   1.110       .  S
C2576      H2582   1.111       .  S
C2583      C2588   1.403       .  A
C2583      H2590   1.085       .  S
C2584      C2585   1.421       .  A
C2585      C2586   1.401       .  A
C2585      C2592   1.511       .  S
C2586      H2591   1.082       .  S
C2587      C2588   1.430       .  A
C2588      C2589   1.510       .  S
C2589      H2593   1.111       .  S
C2589      H2594   1.110       .  S
C2589      H2595   1.109       .  S
C2592      H2596   1.108       .  S
C2592      H2597   1.106       .  S
C2592      H2598   1.111       .  S
C2599      C3716   1.404       .  A
C2599      C2604   1.407       .  A
C2599      H2606   1.084       .  S
C2600      C3715   1.404   1_545  A
C2600      C3159   1.431       .  A
C2601      C3158   1.431   1_554  A
C2601      C2602   1.407       .  A
C2601      C2608   1.505       .  S
C2602      C3719   1.393   1_545  A
C2602      H2607   1.085       .  S
C2603      C3718   1.393       .  A
C2603      C3162   1.417       .  A
C2604      C3161   1.417       .  A
C2604      C2605   1.507       .  S
C2605      H2609   1.111       .  S
C2605      H3168   1.107       .  S
C2605      H2611   1.109       .  S
C2608      H2612   1.110   1_554  S
C2608      H3171   1.106   1_554  S
C2608      H2614   1.111       .  S
H2610      C3163   1.107   1_554  S
H2613      C3166   1.106       .  S
C2615      C2616   1.407   1_565  A
C2615      C2620   1.413       .  A
C2615      H2622   1.083       .  S
C2616      C2617   1.435       .  A
C2617      C2618   1.386       .  A
C2617      C2624   1.520       .  S
C2618      C3735   1.392   1_545  A
C2618      H3739   1.084       .  S
C2619      C3734   1.392       .  A
C2619      C3736   1.417       .  A
C2620      C3735   1.417       .  A
C2620      C3737   1.505       .  S
C2621      C3736   1.505       .  S
C2621      H3741   1.111       .  S
C2621      H2626   1.110       .  S
C2621      H2627   1.109       .  S
H2623      C3734   1.084       .  S
C2624      H2628   1.107       .  S
C2624      H2629   1.108       .  S
C2624      H2630   1.110       .  S
H2625      C3737   1.111       .  S
C2631      C2632   1.399       .  A
C2631      C2636   1.400       .  A
C2631      H2638   1.085       .  S
C2632      C2633   1.413       .  A
C2633      C2634   1.409       .  A
C2633      C2640   1.507       .  S
C2634      C2635   1.406       .  A
C2634      H2639   1.078       .  S
C2635      C2636   1.423       .  A
C2636      C2637   1.506       .  S
C2637      H2641   1.111       .  S
C2637      H2642   1.109       .  S
C2637      H2643   1.100       .  S
C2640      H2644   1.111       .  S
C2640      H2645   1.110       .  S
C2640      H2646   1.111       .  S
C2647      C2648   1.404       .  A
C2647      C2652   1.404       .  A
C2647      H2654   1.084       .  S
C2648      C2649   1.424       .  A
C2649      C2650   1.405       .  A
C2649      C2656   1.510       .  S
C2650      C2651   1.403       .  A
C2650      H2655   1.084       .  S
C2651      C2652   1.423       .  A
C2652      C2653   1.510       .  S
C2653      H2657   1.111       .  S
C2653      H2658   1.110       .  S
C2653      H2659   1.111       .  S
C2656      H2660   1.110       .  S
C2656      H2661   1.110       .  S
C2656      H2662   1.111       .  S
C2663      C2668   1.403       .  A
C2663      H2670   1.084       .  S
C2664      C3223   1.424       .  A
C2665      C3222   1.424       .  A
C2665      C2666   1.402   1_556  A
C2665      C2672   1.510       .  S
C2666      H2671   1.084       .  S
C2667      C3226   1.421   1_554  A
C2668      C3225   1.421       .  A
C2668      C2669   1.509       .  S
C2669      H2673   1.111       .  S
C2669      H2674   1.110       .  S
C2669      H3233   1.109       .  S
C2672      H3234   1.109       .  S
C2672      H2677   1.109       .  S
C2672      H2678   1.111   1_556  S
H2675      C3227   1.109   1_554  S
H2676      C3230   1.109       .  S
C2679      C2680   1.405       .  A
C2679      C2684   1.410       .  A
C2679      H2686   1.085       .  S
C2681      C2682   1.394       .  A
C2681      C2688   1.506       .  S
C2682      C2683   1.401       .  A
C2682      H2687   1.079       .  S
C2684      C2685   1.506       .  S
C2685      H2689   1.111       .  S
C2685      H2690   1.110       .  S
C2685      H2691   1.111       .  S
C2688      H2692   1.106       .  S
C2688      H2693   1.106       .  S
C2688      H2694   1.111       .  S
C2695      C2696   1.403       .  A
C2695      C2700   1.398       .  A
C2695      H2702   1.084       .  S
C2696      C2697   1.419       .  A
C2697      C2698   1.403       .  A
C2697      C2704   1.500       .  S
C2698      C2699   1.397       .  A
C2698      H2703   1.084       .  S
C2699      C3387   1.473       .  S
C2699      C2700   1.412       .  A
C2700      C2701   1.502       .  S
C2701      H2705   1.111       .  S
C2701      H3822   1.111       .  S
C2701      H2707   1.104       .  S
C2704      H2708   1.110       .  S
C2704      H2709   1.108       .  S
C2704      H2710   1.111       .  S
H2706      C3817   1.111       .  S
C2711      C2712   1.406       .  A
C2711      C2716   1.409       .  A
C2711      H2718   1.084       .  S
C2712      C2713   1.412       .  A
C2713      C2714   1.386       .  A
C2713      C2720   1.509       .  S
C2714      C2715   1.401       .  A
C2714      H2719   1.084       .  S
C2715      C2716   1.413       .  A
C2716      C2717   1.505       .  S
C2717      H2721   1.111       .  S
C2717      H2722   1.110       .  S
C2717      H2723   1.110       .  S
C2720      H2724   1.105       .  S
C2727      C2728   1.404       .  A
C2727      C2732   1.405       .  A
C2727      H3850   1.081       .  S
C2728      C3445   1.509       .  S
C2728      C2729   1.424       .  A
C2729      C2730   1.415       .  A
C2729      C2736   1.507       .  S
C2730      C2731   1.408       .  A
C2730      H2735   1.084       .  S
C2731      C2732   1.419       .  A
C2732      C2733   1.504       .  S
C2733      H2737   1.110       .  S
H2734      C3843   1.081   1_545  S
C2736      H2740   1.110       .  S
C2736      H2741   1.105       .  S
C2736      H2742   1.111       .  S
C2743      C2744   1.399       .  A
C2743      C2748   1.400       .  A
C2743      H2750   1.080       .  S
C2744      C2745   1.414       .  A
C2745      C2746   1.405       .  A
C2745      C2752   1.504       .  S
C2746      C2747   1.406       .  A
C2746      H2751   1.085       .  S
C2747      C2748   1.415       .  A
C2748      C2749   1.507       .  S
C2749      H2753   1.111       .  S
C2749      H2754   1.109       .  S
C2749      H2755   1.110       .  S
C2752      H2756   1.110       .  S
C2752      H2757   1.104       .  S
C2752      H2758   1.110       .  S
C2759      C3318   1.406       .  A
C2759      C2764   1.414       .  A
C2759      H2766   1.084       .  S
C2760      C3317   1.406       .  A
C2760      C2761   1.410       .  A
C2761      C2762   1.392   1_554  A
C2761      C2768   1.510       .  S
C2762      C3321   1.406       .  A
C2762      H2767   1.083       .  S
C2763      C3320   1.406       .  A
C2763      C2764   1.415       .  A
C2764      C2765   1.500       .  S
C2765      H2769   1.111       .  S
C2765      H2770   1.108       .  S
C2765      H2771   1.110       .  S
C2768      H2772   1.102       .  S
C2768      H2773   1.109       .  S
C2768      H2774   1.111       .  S
C2775      C2776   1.404       .  A
C2775      C2780   1.409       .  A
C2775      H2782   1.084       .  S
C2776      C2777   1.415       .  A
C2777      C2778   1.408       .  A
C2777      C2784   1.508       .  S
C2778      C2779   1.408       .  A
C2778      H2783   1.084       .  S
C2779      C2780   1.418       .  A
C2780      C2781   1.504       .  S
C2781      H2785   1.111       .  S
C2781      H2786   1.107       .  S
C2781      H2787   1.110       .  S
C2784      H2788   1.111       .  S
C2784      H2789   1.109       .  S
C2784      H2790   1.111       .  S
O2791      C2799   1.265       .  A
O2791     Co2811   1.889       .  S
O2792      C2800   1.246       .  A
O2792     Co2812   1.932       .  S
O2793      C2801   1.268       .  A
O2793     Co2813   2.055       .  S
O2794      C2802   1.279       .  A
O2794     Co2814   2.030       .  S
O2795      C2801   1.245       .  A
O2795     Co2812   1.934       .  S
O2796      C2802   1.274       .  A
O2796     Co2811   1.989       .  S
O2797      C2800   1.273       .  A
O2797     Co2814   2.050       .  S
O2798      C2799   1.293       .  A
O2798     Co2813   2.097       .  S
C2799      C3254   1.485       .  S
C2800      C3222   1.475       .  S
C2801      C3321   1.491       .  S
O2803      C2816   1.260       .  A
O2803     Co2811   2.003       .  S
O2804      C2817   1.277       .  A
O2804     Co2812   2.026       .  S
O2805      C2818   1.270       .  A
O2805     Co2813   1.913       .  S
O2806      C2819   1.256       .  A
O2806     Co2814   1.938       .  S
O2807      C2819   1.270       .  A
O2807     Co2812   2.027       .  S
O2808      C2818   1.294       .  A
O2808     Co2811   2.094       .  S
O2809      C2816   1.255       .  A
O2809     Co2814   1.978       .  S
O2810      C2817   1.267       .  A
O2810     Co2813   1.976       .  S
Co2811     O2815   2.003       .  S
Co2812     O2815   2.010       .  S
Co2813     O2815   2.028       .  S
Co2814     O2815   2.030       .  S
C2816      C3238   1.477       .  S
C2817      C3302   1.476       .  S
C2818      C3334   1.488       .  S
C2819      C3273   1.473       .  S
O2820      C2828   1.248       .  A
O2820     Co2840   1.939       .  S
O2821      C2829   1.250       .  A
O2821     Co2841   1.997       .  S
O2822      C2830   1.250       .  A
O2823      C2831   1.282       .  A
O2823     Co2843   2.051       .  S
O2824     Co2841   1.990       .  S
O2825      C2831   1.248       .  A
O2825     Co2840   1.913       .  S
O2826      C2829   1.240       .  A
O2826     Co2843   1.960       .  S
O2827      C2828   1.269       .  A
O2827     Co2842   2.032       .  S
C2828      C3142   1.472       .  S
C2829      C4373   1.473   1_545  S
C2830      C3190   1.481       .  S
C2831      C3174   1.491       .  S
O2832      C2845   1.259       .  A
O2832     Co2840   1.994       .  S
O2833      C2846   1.286       .  A
O2833     Co2841   2.024       .  S
O2834      C2847   1.256       .  A
O2834     Co2842   1.985       .  S
O2835      C2848   1.282       .  A
O2835     Co2843   1.940       .  S
O2836      C2848   1.287       .  A
O2836     Co2841   2.036       .  S
O2837      C2847   1.266       .  A
O2837     Co2840   2.005       .  S
O2838      C2845   1.260       .  A
O2838     Co2843   1.994       .  S
O2839      C2846   1.275       .  A
O2839     Co2842   1.931       .  S
Co2840     O2844   2.053       .  S
Co2841     O2844   2.225       .  S
Co2842     O2844   1.974       .  S
Co2843     O2844   1.950       .  S
C2845      C3209   1.493       .  S
C2846      C3126   1.478       .  S
C2847      C3270   1.467       .  S
C2848      C3158   1.501       .  S
O2849      C2857   1.253       .  A
O2849     Co2869   1.972       .  S
O2850      C2858   1.280       .  A
O2850     Co2870   2.046       .  S
O2851      C2859   1.251       .  A
O2851     Co2871   2.003       .  S
O2852      C2860   1.248       .  A
O2852     Co2872   1.944       .  S
O2853      C2859   1.247       .  A
O2853     Co2870   1.992       .  S
O2854      C2860   1.267       .  A
O2854     Co2869   2.030       .  S
O2855      C2858   1.256       .  A
O2855     Co2872   1.912       .  S
O2856      C2857   1.260       .  A
O2856     Co2871   1.994       .  S
C2858      C3030   1.488       .  S
C2859      C4178   1.509       .  S
C2860      C3225   1.472       .  S
O2861      C2874   1.259       .  A
O2861     Co2869   1.983       .  S
O2862      C2875   1.282       .  A
O2862     Co2870   1.913       .  S
O2863      C2876   1.288       .  A
O2863     Co2871   2.020       .  S
O2864      C2877   1.256       .  A
O2864     Co2872   1.981       .  S
O2865      C2877   1.263       .  A
O2865     Co2870   2.007       .  S
O2866      C2876   1.274       .  A
O2866     Co2869   1.938       .  S
O2867      C2874   1.270       .  A
O2867     Co2872   2.028       .  S
O2868      C2875   1.298       .  A
O2868     Co2871   2.065       .  S
Co2869     O2873   1.992       .  S
Co2870     O2873   1.949       .  S
Co2871     O2873   2.228       .  S
Co2872     O2873   2.056       .  S
C2874      C3081   1.495       .  S
C2875      C3049   1.502       .  S
C2876      C3241   1.489       .  S
C2877      C3097   1.497       .  S
O2878      C2886   1.255       .  A
O2878     Co2898   1.991       .  S
O2879      C2887   1.277       .  A
O2879     Co2899   2.040       .  S
O2880      C2888   1.255       .  A
O2880     Co2900   1.944       .  S
O2881      C2889   1.257       .  A
O2881     Co2901   1.873       .  S
O2882      C2888   1.275       .  A
O2882     Co2899   2.045       .  S
O2883      C2889   1.306       .  A
O2883     Co2898   2.149       .  S
O2884      C2887   1.271       .  A
O2884     Co2901   1.979       .  S
O2885      C2886   1.254       .  A
O2885     Co2900   1.958       .  S
C2886      C3001   1.464       .  S
C2887      C4402   1.509   1_545  S
C2888      C3046   1.477       .  S
C2889      C3193   1.494       .  S
O2890      C2903   1.260       .  A
O2890     Co2898   1.880       .  S
O2891      C2904   1.256       .  A
O2891     Co2899   1.957       .  S
O2892      C2905   1.276       .  A
O2892     Co2900   2.016       .  S
O2893      C2906   1.259       .  A
O2893     Co2901   1.978       .  S
O2894      C2906   1.255       .  A
O2894     Co2899   1.978       .  S
O2895      C2905   1.270       .  A
O2895     Co2898   1.973       .  S
O2896      C2903   1.302       .  A
O2896     Co2901   2.118       .  S
O2897      C2904   1.275       .  A
O2897     Co2900   2.028       .  S
Co2898     O2902   2.022       .  S
Co2899     O2902   2.053       .  S
Co2900     O2902   2.019       .  S
Co2901     O2902   1.979       .  S
C2903      C3014   1.486       .  S
C2904      C3206   1.495       .  S
C2905      C3305   1.480       .  S
C2906      C3033   1.482       .  S
O2907      C2915   1.273       .  A
O2907     Co2927   2.051       .  S
O2908      C2916   1.271       .  A
O2908     Co2928   1.919       .  S
O2909      C2917   1.274       .  A
O2909     Co2929   1.903       .  S
O2910      C2918   1.264       .  A
O2910     Co2930   1.973       .  S
O2911      C2917   1.296       .  A
O2911     Co2928   2.054       .  S
O2912      C2918   1.271       .  A
O2912     Co2927   2.032       .  S
O2913      C2916   1.279       .  A
O2913     Co2930   2.024       .  S
O2914      C2915   1.255       .  A
O2914     Co2929   1.999       .  S
C2916      C3017   1.488       .  S
C2917      C3129   1.461       .  S
C2918      C3065   1.506       .  S
O2919      C2932   1.253       .  A
O2919     Co2927   1.961       .  S
O2920      C2933   1.254       .  A
O2920     Co2928   1.992       .  S
O2921      C2934   1.273       .  A
O2921     Co2929   2.038       .  S
O2922      C2935   1.259       .  A
O2922     Co2930   1.994       .  S
O2923      C2935   1.249       .  A
O2923     Co2928   1.957       .  S
O2924      C2934   1.245       .  A
O2924     Co2927   1.946       .  S
O2925      C2932   1.258       .  A
O2925     Co2930   1.989       .  S
O2926      C2933   1.252       .  A
O2926     Co2929   1.994       .  S
Co2927     O2931   2.064       .  S
Co2928     O2931   2.074       .  S
Co2929     O2931   1.943       .  S
Co2930     O2931   2.117       .  S
C2932      C2998   1.478       .  S
C2933      C3078   1.495       .  S
C2934      C3145   1.488       .  S
C2935      C2982   1.479       .  S
O2936      C2944   1.263       .  A
O2936     Co2956   1.895       .  S
O2937      C2945   1.252       .  A
O2937     Co2957   1.940       .  S
O2938      C2946   1.268       .  A
O2938     Co2958   2.033       .  S
O2939      C2947   1.285       .  A
O2939     Co2959   2.055       .  S
O2940      C2946   1.247       .  A
O2940     Co2957   1.942       .  S
O2941      C2947   1.270       .  A
O2941     Co2956   1.980       .  S
O2942      C2945   1.274       .  A
O2942     Co2959   2.043       .  S
O2943      C2944   1.288       .  A
O2943     Co2958   2.092       .  S
C2944      C3110   1.484       .  S
C2945      C3161   1.479       .  S
C2946      C3318   1.472       .  S
C2947      C4082   1.514       .  S
O2948      C2961   1.260       .  A
O2948     Co2956   1.978       .  S
O2949      C2962   1.276       .  A
O2949     Co2957   2.031       .  S
O2950      C2963   1.270       .  A
O2950     Co2958   1.925       .  S
O2951      C2964   1.257       .  A
O2951     Co2959   1.963       .  S
O2952      C2964   1.274       .  A
O2952     Co2957   2.023       .  S
O2953      C2963   1.291       .  A
O2953     Co2956   2.088       .  S
O2954      C2961   1.252       .  A
O2954     Co2959   1.982       .  S
O2955      C2962   1.261       .  A
O2955     Co2958   1.961       .  S
Co2956     O2960   2.008       .  S
Co2957     O2960   2.033       .  S
Co2958     O2960   2.042       .  S
Co2959     O2960   2.051       .  S
C2961      C3177   1.477       .  S
C2962      C2985   1.472       .  S
C2963      C3337   1.496       .  S
C2964      C3094   1.495       .  S
C2965      C2966   1.411       .  A
C2965      C2970   1.411       .  A
C2965      H2972   1.083       .  S
C2966      C4063   1.514   1_545  S
C2966      C2967   1.425       .  A
C2967      C2968   1.418       .  A
C2967      C2974   1.507       .  S
C2968      C2969   1.407       .  A
C2969      C2970   1.415       .  A
C2970      C2971   1.505       .  S
C2971      H2975   1.111       .  S
C2971      H2976   1.109       .  S
C2971      H2977   1.110       .  S
C2974      H4094   1.110       .  S
C2974      H4095   1.109   1_545  S
C2974      H2980   1.111       .  S
H2978      C4090   1.110       .  S
H2979      C4090   1.109       .  S
C2981      C2982   1.401       .  A
C2981      C2986   1.402       .  A
C2981      H2988   1.084       .  S
C2982      C2983   1.422       .  A
C2983      C2984   1.404       .  A
C2983      C2990   1.508       .  S
C2984      C2985   1.398       .  A
C2984      H2989   1.084       .  S
C2985      C2986   1.414       .  A
C2986      C2987   1.505       .  S
C2987      H2991   1.111       .  S
C2987      H2992   1.109       .  S
C2987      H2993   1.109       .  S
C2990      H2994   1.107       .  S
C2990      H2995   1.110       .  S
C2990      H2996   1.111       .  S
C2997      C2998   1.408       .  A
C2997      C3002   1.399       .  A
C2997      H3004   1.084       .  S
C2998      C2999   1.420       .  A
C2999      C3000   1.394       .  A
C2999      C3006   1.510       .  S
C3000      C3001   1.398       .  A
C3000      H3005   1.085       .  S
C3001      C3002   1.408       .  A
C3002      C3003   1.503       .  S
C3003      H3007   1.111       .  S
C3003      H3008   1.110       .  S
C3003      H3009   1.103       .  S
C3006      H3010   1.110       .  S
C3006      H3011   1.110       .  S
C3006      H3012   1.111       .  S
C3013      C3018   1.393       .  A
C3013      H3020   1.084       .  S
C3014      C3015   1.425       .  A
C3015      C3022   1.508       .  S
C3016      C3017   1.402       .  A
C3016      H3021   1.084       .  S
C3017      C3018   1.426       .  A
C3018      C3019   1.509       .  S
C3019      H3023   1.111       .  S
C3019      H3024   1.110       .  S
C3019      H3025   1.109       .  S
C3022      H3026   1.110       .  S
C3022      H3027   1.109       .  S
C3022      H3028   1.111       .  S
C3029      C3034   1.384   1_554  A
C3029      H3036   1.084       .  S
C3030      C4147   1.410       .  A
C3031      C4146   1.410       .  A
C3031      C3032   1.415       .  A
C3031      C3038   1.503       .  S
C3032      H3037   1.083       .  S
C3033      C4150   1.415       .  A
C3034      C4149   1.415       .  A
C3034      C3035   1.515       .  S
C3035      H3039   1.111       .  S
C3035      H3040   1.109       .  S
C3035      H3041   1.109       .  S
C3038      H3042   1.110       .  S
C3038      H3043   1.111       .  S
C3038      H3044   1.111       .  S
C3045      C3046   1.396   1_565  A
C3045      C4166   1.409       .  A
C3045      H3052   1.084       .  S
C3046      C3047   1.414       .  A
C3047      C3048   1.404       .  A
C3047      C3054   1.509       .  S
C3048      C4165   1.406   1_545  A
C3048      H3053   1.083       .  S
C3049      C4164   1.406       .  A
C3049      C3050   1.428       .  A
C3050      C4161   1.409       .  A
C3050      C3051   1.503       .  S
C3051      H3055   1.111       .  S
C3051      H3056   1.110       .  S
C3051      H3057   1.104       .  S
C3054      H3058   1.110       .  S
C3054      H3059   1.109       .  S
C3054      H3060   1.111       .  S
C3061      C3062   1.411       .  A
C3061      C3066   1.412       .  A
C3061      H3068   1.083       .  S
C3062      C3975   1.509   1_545  S
C3062      C3063   1.419       .  A
C3063      C3064   1.407       .  A
C3063      C3070   1.504       .  S
C3064      C3065   1.406       .  A
C3064      H3069   1.077       .  S
C3065      C3066   1.420       .  A
C3066      C3067   1.508       .  S
C3067      H3071   1.111       .  S
C3067      H3072   1.111       .  S
C3067      H3073   1.109       .  S
C3070      H3074   1.108       .  S
C3070      H3075   1.110       .  S
C3070      H3076   1.110       .  S
C3077      C3078   1.407       .  A
C3077      C3082   1.407       .  A
C3077      H3084   1.084       .  S
C3078      C3079   1.420       .  A
C3079      C3080   1.406       .  A
C3079      C3086   1.509       .  S
C3080      C3081   1.407       .  A
C3080      H3085   1.084       .  S
C3081      C3082   1.418       .  A
C3082      C3083   1.506       .  S
C3083      H3087   1.111       .  S
C3083      H3088   1.107       .  S
C3083      H3089   1.109       .  S
C3086      H3090   1.110       .  S
C3086      H3091   1.110       .  S
C3086      H3092   1.111       .  S
C3093      C3094   1.400       .  A
C3093      C3098   1.401       .  A
C3093      H3100   1.081       .  S
C3094      C3095   1.422       .  A
C3095      C3096   1.411       .  A
C3095      C3102   1.508       .  S
C3096      C3097   1.405       .  A
C3096      H3101   1.083       .  S
C3097      C3098   1.427       .  A
C3098      C3099   1.513       .  S
C3099      H3103   1.111       .  S
C3099      H3104   1.111       .  S
C3099      H3105   1.110       .  S
C3102      H3106   1.109       .  S
C3102      H3107   1.110       .  S
C3102      H3108   1.111       .  S
C3109      C3110   1.401       .  A
C3109      C3114   1.396       .  A
C3109      H3116   1.085       .  S
C3110      C3111   1.425       .  A
C3111      C3112   1.407       .  A
C3111      C3118   1.510       .  S
C3112      C3113   1.403       .  A
C3112      H3117   1.085       .  S
C3113      C3114   1.413       .  A
C3115      H3119   1.111       .  S
C3115      H3120   1.109       .  S
C3115      H3121   1.108       .  S
C3118      H3122   1.110       .  S
C3118      H3123   1.101       .  S
C3118      H3124   1.110       .  S
C3125      H3132   1.080       .  S
C3127      C3134   1.506       .  S
C3128      C3129   1.404       .  A
C3128      H3133   1.085       .  S
C3129      C3130   1.403       .  A
C3130      C3131   1.507       .  S
C3131      H3137   1.110       .  S
C3134      H3138   1.110       .  S
C3134      H3139   1.110       .  S
C3134      H3140   1.111       .  S
C3141      C3146   1.403       .  A
C3141      H3148   1.085       .  S
C3142      C3143   1.421       .  A
C3143      C3144   1.401       .  A
C3143      C3150   1.511       .  S
C3144      H3149   1.082       .  S
C3145      C3146   1.430       .  A
C3146      C3147   1.510       .  S
C3147      H3151   1.111       .  S
C3147      H3152   1.110       .  S
C3147      H3153   1.109       .  S
C3150      H3154   1.108       .  S
C3150      H3155   1.106       .  S
C3150      H3156   1.111       .  S
C3157      C4274   1.404       .  A
C3157      C3162   1.407   1_556  A
C3157      H3164   1.084       .  S
C3158      C4273   1.404   1_545  A
C3159      C3160   1.407       .  A
C3159      C3166   1.505       .  S
C3160      C4277   1.393   1_545  A
C3160      H3165   1.085       .  S
C3161      C4276   1.393       .  A
C3162      C3163   1.507   1_554  S
C3163      H3167   1.111       .  S
C3163      H3169   1.109   1_556  S
C3166      H3170   1.110       .  S
C3166      H3172   1.111       .  S
C3173      C3174   1.407   1_565  A
C3173      C3178   1.413       .  A
C3173      H3180   1.083       .  S
C3174      C3175   1.435       .  A
C3175      C3176   1.386       .  A
C3175      C3182   1.520       .  S
C3176      C4293   1.392   1_545  A
C3176      H4297   1.084       .  S
C3177      C4292   1.392       .  A
C3177      C4294   1.417       .  A
C3178      C4293   1.417       .  A
C3178      C4295   1.505       .  S
C3179      C4294   1.505       .  S
C3179      H4299   1.111       .  S
C3179      H3184   1.110       .  S
C3179      H3185   1.109       .  S
H3181      C4292   1.084       .  S
C3182      H3186   1.107       .  S
C3182      H3187   1.108       .  S
C3182      H3188   1.110       .  S
H3183      C4295   1.111       .  S
C3189      C3190   1.399       .  A
C3189      C3194   1.400       .  A
C3189      H3196   1.085       .  S
C3190      C3191   1.413       .  A
C3191      C3192   1.409       .  A
C3191      C3198   1.507       .  S
C3192      C3193   1.406       .  A
C3192      H3197   1.078       .  S
C3193      C3194   1.423       .  A
C3194      C3195   1.506       .  S
C3195      H3199   1.111       .  S
C3195      H3200   1.109       .  S
C3195      H3201   1.100       .  S
C3198      H3202   1.111       .  S
C3198      H3203   1.110       .  S
C3198      H3204   1.111       .  S
C3205      C3206   1.404       .  A
C3205      C3210   1.404       .  A
C3205      H3212   1.084       .  S
C3206      C3207   1.424       .  A
C3207      C3208   1.405       .  A
C3207      C3214   1.510       .  S
C3208      C3209   1.403       .  A
C3208      H3213   1.084       .  S
C3209      C3210   1.423       .  A
C3210      C3211   1.510       .  S
C3211      H3215   1.111       .  S
C3211      H3216   1.110       .  S
C3211      H3217   1.111       .  S
C3214      H3218   1.110       .  S
C3214      H3219   1.110       .  S
C3214      H3220   1.111       .  S
C3221      C3226   1.403       .  A
C3221      H3228   1.084       .  S
C3223      C3224   1.402       .  A
C3223      C3230   1.510       .  S
C3224      H3229   1.084       .  S
C3226      C3227   1.509       .  S
C3227      H3231   1.111       .  S
C3227      H3232   1.110   1_556  S
C3230      H3235   1.109       .  S
C3230      H3236   1.111       .  S
C3237      C3238   1.405       .  A
C3237      C3242   1.410       .  A
C3237      H3244   1.085       .  S
C3239      C3240   1.394       .  A
C3239      C3246   1.506       .  S
C3240      C3241   1.401       .  A
C3240      H3245   1.079       .  S
C3242      C3243   1.506       .  S
C3243      H3247   1.111       .  S
C3243      H3248   1.110       .  S
C3243      H3249   1.111       .  S
C3246      H3250   1.106       .  S
C3246      H3251   1.106       .  S
C3246      H3252   1.111       .  S
C3253      C3254   1.403       .  A
C3253      C3258   1.398       .  A
C3253      H3260   1.084       .  S
C3254      C3255   1.419       .  A
C3255      C3256   1.403       .  A
C3255      C3262   1.500       .  S
C3256      C3257   1.397       .  A
C3256      H3261   1.084       .  S
C3257      C3945   1.473       .  S
C3257      C3258   1.412       .  A
C3258      C3259   1.502       .  S
C3259      H3263   1.111       .  S
C3259      H4380   1.111       .  S
C3259      H3265   1.104       .  S
C3262      H3266   1.110       .  S
C3262      H3267   1.108       .  S
C3262      H3268   1.111       .  S
H3264      C4375   1.111       .  S
C3269      C3270   1.406       .  A
C3269      C3274   1.409       .  A
C3269      H3276   1.084       .  S
C3270      C3271   1.412       .  A
C3271      C3272   1.386       .  A
C3271      C3278   1.509       .  S
C3272      C3273   1.401       .  A
C3272      H3277   1.084       .  S
C3273      C3274   1.413       .  A
C3274      C3275   1.505       .  S
C3275      H3279   1.111       .  S
C3275      H3280   1.110       .  S
C3275      H3281   1.110       .  S
C3278      H3282   1.105       .  S
C3285      C3286   1.404       .  A
C3285      C3290   1.405       .  A
C3285      H4408   1.081       .  S
C3286      C4003   1.509       .  S
C3286      C3287   1.424       .  A
C3287      C3288   1.415       .  A
C3287      C3294   1.507       .  S
C3288      C3289   1.408       .  A
C3288      H3293   1.084       .  S
C3289      C3290   1.419       .  A
C3290      C3291   1.504       .  S
C3291      H3295   1.110       .  S
H3292      C4401   1.081   1_545  S
C3294      H3298   1.110       .  S
C3294      H3299   1.105       .  S
C3294      H3300   1.111       .  S
C3301      C3302   1.399       .  A
C3301      C3306   1.400       .  A
C3301      H3308   1.080       .  S
C3302      C3303   1.414       .  A
C3303      C3304   1.405       .  A
C3303      C3310   1.504       .  S
C3304      C3305   1.406       .  A
C3304      H3309   1.085       .  S
C3305      C3306   1.415       .  A
C3306      C3307   1.507       .  S
C3307      H3311   1.111       .  S
C3307      H3312   1.109       .  S
C3307      H3313   1.110       .  S
C3310      H3314   1.110       .  S
C3310      H3315   1.104       .  S
C3310      H3316   1.110       .  S
C3317      C3322   1.414   1_554  A
C3317      H3324   1.084       .  S
C3318      C3319   1.410       .  A
C3319      C3320   1.392       .  A
C3319      C3326   1.510       .  S
C3320      H3325   1.083       .  S
C3321      C3322   1.415       .  A
C3322      C3323   1.500       .  S
C3323      H3327   1.111       .  S
C3323      H3328   1.108       .  S
C3323      H3329   1.110       .  S
C3326      H3330   1.102       .  S
C3326      H3331   1.109       .  S
C3326      H3332   1.111       .  S
C3333      C3334   1.404       .  A
C3333      C3338   1.409       .  A
C3333      H3340   1.084       .  S
C3334      C3335   1.415       .  A
C3335      C3336   1.408       .  A
C3335      C3342   1.508       .  S
C3336      C3337   1.408       .  A
C3336      H3341   1.084       .  S
C3337      C3338   1.418       .  A
C3338      C3339   1.504       .  S
C3339      H3343   1.111       .  S
C3339      H3344   1.107       .  S
C3339      H3345   1.110       .  S
C3342      H3346   1.111       .  S
C3342      H3347   1.109       .  S
C3342      H3348   1.111       .  S
O3349      C3357   1.265       .  A
O3349     Co3369   1.889       .  S
O3350      C3358   1.246       .  A
O3350     Co3370   1.932       .  S
O3351      C3359   1.268       .  A
O3351     Co3371   2.055       .  S
O3352      C3360   1.279       .  A
O3352     Co3372   2.030       .  S
O3353      C3359   1.245       .  A
O3353     Co3370   1.934       .  S
O3354      C3360   1.274       .  A
O3354     Co3369   1.989       .  S
O3355      C3358   1.273       .  A
O3355     Co3372   2.050       .  S
O3356      C3357   1.293       .  A
O3356     Co3371   2.097       .  S
C3357      C3812   1.485       .  S
C3358      C3780   1.475       .  S
C3359      C3879   1.491       .  S
O3361      C3374   1.260       .  A
O3361     Co3369   2.003       .  S
O3362      C3375   1.277       .  A
O3362     Co3370   2.026       .  S
O3363      C3376   1.270       .  A
O3363     Co3371   1.913       .  S
O3364      C3377   1.256       .  A
O3364     Co3372   1.938       .  S
O3365      C3377   1.270       .  A
O3365     Co3370   2.027       .  S
O3366      C3376   1.294       .  A
O3366     Co3369   2.094       .  S
O3367      C3374   1.255       .  A
O3367     Co3372   1.978       .  S
O3368      C3375   1.267       .  A
O3368     Co3371   1.976       .  S
Co3369     O3373   2.003       .  S
Co3370     O3373   2.010       .  S
Co3371     O3373   2.028       .  S
Co3372     O3373   2.030       .  S
C3374      C3796   1.477       .  S
C3375      C3860   1.476       .  S
C3376      C3892   1.488       .  S
C3377      C3831   1.473       .  S
O3378      C3386   1.248       .  A
O3378     Co3398   1.939       .  S
O3379      C3387   1.250       .  A
O3379     Co3399   1.997       .  S
O3380      C3388   1.250       .  A
O3381      C3389   1.282       .  A
O3381     Co3401   2.051       .  S
O3382     Co3399   1.990       .  S
O3383      C3389   1.248       .  A
O3383     Co3398   1.913       .  S
O3384      C3387   1.240       .  A
O3384     Co3401   1.960       .  S
O3385      C3386   1.269       .  A
O3385     Co3400   2.032       .  S
C3386      C3700   1.472       .  S
C3388      C3748   1.481       .  S
C3389      C3732   1.491       .  S
O3390      C3403   1.259       .  A
O3390     Co3398   1.994       .  S
O3391      C3404   1.286       .  A
O3391     Co3399   2.024       .  S
O3392      C3405   1.256       .  A
O3392     Co3400   1.985       .  S
O3393      C3406   1.282       .  A
O3393     Co3401   1.940       .  S
O3394      C3406   1.287       .  A
O3394     Co3399   2.036       .  S
O3395      C3405   1.266       .  A
O3395     Co3398   2.005       .  S
O3396      C3403   1.260       .  A
O3396     Co3401   1.994       .  S
O3397      C3404   1.275       .  A
O3397     Co3400   1.931       .  S
Co3398     O3402   2.053       .  S
Co3399     O3402   2.225       .  S
Co3400     O3402   1.974       .  S
Co3401     O3402   1.950       .  S
C3403      C3767   1.493       .  S
C3404      C3684   1.478       .  S
C3405      C3828   1.467       .  S
C3406      C3716   1.501       .  S
O3407      C3415   1.253       .  A
O3407     Co3427   1.972       .  S
O3408      C3416   1.280       .  A
O3408     Co3428   2.046       .  S
O3409      C3417   1.251       .  A
O3409     Co3429   2.003       .  S
O3410      C3418   1.248       .  A
O3410     Co3430   1.944       .  S
O3411      C3417   1.247       .  A
O3411     Co3428   1.992       .  S
O3412      C3418   1.267       .  A
O3412     Co3427   2.030       .  S
O3413      C3416   1.256       .  A
O3413     Co3430   1.912       .  S
O3414      C3415   1.260       .  A
O3414     Co3429   1.994       .  S
C3416      C3588   1.488   1_565  S
C3418      C3783   1.472       .  S
O3419      C3432   1.259       .  A
O3419     Co3427   1.983       .  S
O3420      C3433   1.282       .  A
O3420     Co3428   1.913       .  S
O3421      C3434   1.288       .  A
O3421     Co3429   2.020       .  S
O3422      C3435   1.256       .  A
O3422     Co3430   1.981       .  S
O3423      C3435   1.263       .  A
O3423     Co3428   2.007       .  S
O3424      C3434   1.274       .  A
O3424     Co3427   1.938       .  S
O3425      C3432   1.270       .  A
O3425     Co3430   2.028       .  S
O3426      C3433   1.298       .  A
O3426     Co3429   2.065       .  S
Co3427     O3431   1.992       .  S
Co3428     O3431   1.949       .  S
Co3429     O3431   2.228       .  S
Co3430     O3431   2.056       .  S
C3432      C3639   1.495       .  S
C3433      C3607   1.502       .  S
C3434      C3799   1.489       .  S
C3435      C3655   1.497       .  S
O3436      C3444   1.255       .  A
O3436     Co3456   1.991       .  S
O3437      C3445   1.277       .  A
O3437     Co3457   2.040       .  S
O3438      C3446   1.255       .  A
O3438     Co3458   1.944       .  S
O3439      C3447   1.257       .  A
O3439     Co3459   1.873       .  S
O3440      C3446   1.275       .  A
O3440     Co3457   2.045       .  S
O3441      C3447   1.306       .  A
O3441     Co3456   2.149       .  S
O3442      C3445   1.271       .  A
O3442     Co3459   1.979       .  S
O3443      C3444   1.254       .  A
O3443     Co3458   1.958       .  S
C3444      C3559   1.464       .  S
C3446      C3604   1.477       .  S
C3447      C3751   1.494       .  S
O3448      C3461   1.260       .  A
O3448     Co3456   1.880       .  S
O3449      C3462   1.256       .  A
O3449     Co3457   1.957       .  S
O3450      C3463   1.276       .  A
O3450     Co3458   2.016       .  S
O3451      C3464   1.259       .  A
O3451     Co3459   1.978       .  S
O3452      C3464   1.255       .  A
O3452     Co3457   1.978       .  S
O3453      C3463   1.270       .  A
O3453     Co3456   1.973       .  S
O3454      C3461   1.302       .  A
O3454     Co3459   2.118       .  S
O3455      C3462   1.275       .  A
O3455     Co3458   2.028       .  S
Co3456     O3460   2.022       .  S
Co3457     O3460   2.053       .  S
Co3458     O3460   2.019       .  S
Co3459     O3460   1.979       .  S
C3461      C3572   1.486       .  S
C3462      C3764   1.495       .  S
C3463      C3863   1.480       .  S
C3464      C3591   1.482       .  S
O3465      C3473   1.273       .  A
O3465     Co3485   2.051       .  S
O3466      C3474   1.271       .  A
O3466     Co3486   1.919       .  S
O3467      C3475   1.274       .  A
O3467     Co3487   1.903       .  S
O3468      C3476   1.264       .  A
O3468     Co3488   1.973       .  S
O3469      C3475   1.296       .  A
O3469     Co3486   2.054       .  S
O3470      C3476   1.271       .  A
O3470     Co3485   2.032       .  S
O3471      C3474   1.279       .  A
O3471     Co3488   2.024       .  S
O3472      C3473   1.255       .  A
O3472     Co3487   1.999       .  S
C3474      C3575   1.488       .  S
C3475      C3687   1.461       .  S
C3476      C3623   1.506       .  S
O3477      C3490   1.253       .  A
O3477     Co3485   1.961       .  S
O3478      C3491   1.254       .  A
O3478     Co3486   1.992       .  S
O3479      C3492   1.273       .  A
O3479     Co3487   2.038       .  S
O3480      C3493   1.259       .  A
O3480     Co3488   1.994       .  S
O3481      C3493   1.249       .  A
O3481     Co3486   1.957       .  S
O3482      C3492   1.245       .  A
O3482     Co3485   1.946       .  S
O3483      C3490   1.258       .  A
O3483     Co3488   1.989       .  S
O3484      C3491   1.252       .  A
O3484     Co3487   1.994       .  S
Co3485     O3489   2.064       .  S
Co3486     O3489   2.074       .  S
Co3487     O3489   1.943       .  S
Co3488     O3489   2.117       .  S
C3490      C3556   1.478       .  S
C3491      C3636   1.495       .  S
C3492      C3703   1.488       .  S
C3493      C3540   1.479       .  S
O3494      C3502   1.263       .  A
O3494     Co3514   1.895       .  S
O3495      C3503   1.252       .  A
O3495     Co3515   1.940       .  S
O3496      C3504   1.268       .  A
O3496     Co3516   2.033       .  S
O3497      C3505   1.285       .  A
O3497     Co3517   2.055       .  S
O3498      C3504   1.247       .  A
O3498     Co3515   1.942       .  S
O3499      C3505   1.270       .  A
O3499     Co3514   1.980       .  S
O3500      C3503   1.274       .  A
O3500     Co3517   2.043       .  S
O3501      C3502   1.288       .  A
O3501     Co3516   2.092       .  S
C3502      C3668   1.484       .  S
C3503      C3719   1.479       .  S
C3504      C3876   1.472       .  S
O3506      C3519   1.260       .  A
O3506     Co3514   1.978       .  S
O3507      C3520   1.276       .  A
O3507     Co3515   2.031       .  S
O3508      C3521   1.270       .  A
O3508     Co3516   1.925       .  S
O3509      C3522   1.257       .  A
O3509     Co3517   1.963       .  S
O3510      C3522   1.274       .  A
O3510     Co3515   2.023       .  S
O3511      C3521   1.291       .  A
O3511     Co3514   2.088       .  S
O3512      C3519   1.252       .  A
O3512     Co3517   1.982       .  S
O3513      C3520   1.261       .  A
O3513     Co3516   1.961       .  S
Co3514     O3518   2.008       .  S
Co3515     O3518   2.033       .  S
Co3516     O3518   2.042       .  S
Co3517     O3518   2.051       .  S
C3519      C3735   1.477       .  S
C3520      C3543   1.472       .  S
C3521      C3895   1.496       .  S
C3522      C3652   1.495       .  S
C3523      C3524   1.411       .  A
C3523      C3528   1.411       .  A
C3523      H3530   1.083       .  S
C3524      C3525   1.425       .  A
C3525      C3526   1.418       .  A
C3525      C3532   1.507       .  S
C3526      C3527   1.407       .  A
C3527      C3528   1.415       .  A
C3528      C3529   1.505       .  S
C3529      H3533   1.111       .  S
C3529      H3534   1.109       .  S
C3529      H3535   1.110       .  S
C3532      H3538   1.111       .  S
C3539      C3540   1.401       .  A
C3539      C3544   1.402       .  A
C3539      H3546   1.084       .  S
C3540      C3541   1.422       .  A
C3541      C3542   1.404       .  A
C3541      C3548   1.508       .  S
C3542      C3543   1.398       .  A
C3542      H3547   1.084       .  S
C3543      C3544   1.414       .  A
C3544      C3545   1.505       .  S
C3545      H3549   1.111       .  S
C3545      H3550   1.109       .  S
C3545      H3551   1.109       .  S
C3548      H3552   1.107       .  S
C3548      H3553   1.110       .  S
C3548      H3554   1.111       .  S
C3555      C3556   1.408       .  A
C3555      C3560   1.399       .  A
C3555      H3562   1.084       .  S
C3556      C3557   1.420       .  A
C3557      C3558   1.394       .  A
C3557      C3564   1.510       .  S
C3558      C3559   1.398       .  A
C3558      H3563   1.085       .  S
C3559      C3560   1.408       .  A
C3560      C3561   1.503       .  S
C3561      H3565   1.111       .  S
C3561      H3566   1.110       .  S
C3561      H3567   1.103       .  S
C3564      H3568   1.110       .  S
C3564      H3569   1.110       .  S
C3564      H3570   1.111       .  S
C3571      C4130   1.397       .  A
C3571      C3576   1.393   1_556  A
C3571      H3578   1.084       .  S
C3572      C4129   1.397       .  A
C3572      C3573   1.425       .  A
C3573      C4132   1.408       .  A
C3573      C3580   1.508       .  S
C3574      C4131   1.408       .  A
C3574      C3575   1.402   1_556  A
C3574      H3579   1.084       .  S
C3575      C3576   1.426       .  A
C3576      C3577   1.509       .  S
C3577      H3581   1.111       .  S
C3577      H3582   1.110       .  S
C3577      H3583   1.109       .  S
C3580      H3584   1.110       .  S
C3580      H3585   1.109       .  S
C3580      H3586   1.111       .  S
C3587      C4146   1.409   1_565  A
C3587      C3592   1.384   1_565  A
C3587      H3594   1.084       .  S
C3588      C4145   1.409   1_545  A
C3589      C3590   1.415       .  A
C3589      C3596   1.503       .  S
C3590      C4149   1.414   1_554  A
C3590      H3595   1.083   1_554  S
C3591      C4148   1.414       .  A
C3592      C3593   1.515       .  S
C3593      H3597   1.111   1_545  S
C3593      H3598   1.109   1_545  S
C3593      H3599   1.109       .  S
C3596      H3600   1.110       .  S
C3596      H3601   1.111       .  S
C3596      H3602   1.111       .  S
C3603      C3604   1.396       .  A
C3603      H3610   1.084       .  S
C3604      C3605   1.414       .  A
C3605      C3606   1.404       .  A
C3605      C3612   1.509       .  S
C3606      H3611   1.083       .  S
C3607      C3608   1.428       .  A
C3608      C3609   1.503       .  S
C3609      H3613   1.111       .  S
C3609      H3614   1.110       .  S
C3609      H3615   1.104       .  S
C3612      H3616   1.110       .  S
C3612      H3617   1.109       .  S
C3612      H3618   1.111       .  S
C3619      C3620   1.411       .  A
C3619      C3624   1.412       .  A
C3619      H3626   1.083       .  S
C3620      C3621   1.419       .  A
C3621      C3622   1.407       .  A
C3621      C3628   1.504       .  S
C3622      C3623   1.406       .  A
C3622      H3627   1.077       .  S
C3623      C3624   1.420       .  A
C3624      C3625   1.508       .  S
C3625      H3629   1.111       .  S
C3625      H3630   1.111       .  S
C3625      H3631   1.109       .  S
C3628      H3632   1.108       .  S
C3628      H3633   1.110       .  S
C3628      H3634   1.110       .  S
C3635      C3636   1.407       .  A
C3635      C3640   1.407       .  A
C3635      H3642   1.084       .  S
C3636      C3637   1.420       .  A
C3637      C3638   1.406       .  A
C3637      C3644   1.509       .  S
C3638      C3639   1.407       .  A
C3638      H3643   1.084       .  S
C3639      C3640   1.418       .  A
C3640      C3641   1.506       .  S
C3641      H3645   1.111       .  S
C3641      H3646   1.107       .  S
C3641      H3647   1.109       .  S
C3644      H3648   1.110       .  S
C3644      H3649   1.110       .  S
C3644      H3650   1.111       .  S
C3651      C3652   1.400       .  A
C3651      C3656   1.401       .  A
C3651      H3658   1.081       .  S
C3652      C3653   1.422       .  A
C3653      C3654   1.411       .  A
C3653      C3660   1.508       .  S
C3654      C3655   1.405       .  A
C3654      H3659   1.083       .  S
C3655      C3656   1.427       .  A
C3656      C3657   1.513       .  S
C3657      H3661   1.111       .  S
C3657      H3662   1.111       .  S
C3657      H3663   1.110       .  S
C3660      H3664   1.109       .  S
C3660      H3665   1.110       .  S
C3660      H3666   1.111       .  S
C3667      C3668   1.401       .  A
C3667      C3672   1.396       .  A
C3667      H3674   1.085       .  S
C3668      C3669   1.425       .  A
C3669      C3670   1.407       .  A
C3669      C3676   1.510       .  S
C3670      C3671   1.403       .  A
C3670      H3675   1.085       .  S
C3671      C3672   1.413       .  A
C3673      H3677   1.111       .  S
C3673      H3678   1.109       .  S
C3673      H3679   1.108       .  S
C3676      H3680   1.110       .  S
C3676      H3681   1.101       .  S
C3676      H3682   1.110       .  S
C3683      C4242   1.407       .  A
C3683      H3690   1.080       .  S
C3684      C4241   1.407       .  A
C3685      C4244   1.406       .  A
C3685      C3692   1.506       .  S
C3686      C4243   1.406   1_554  A
C3686      C3687   1.404       .  A
C3686      H3691   1.085       .  S
C3687      C3688   1.403       .  A
C3688      C3689   1.507       .  S
C3689      H3695   1.110       .  S
C3692      H3696   1.110       .  S
C3692      H3697   1.110       .  S
C3692      H3698   1.111       .  S
C3699      C3704   1.403       .  A
C3699      H3706   1.085       .  S
C3700      C3701   1.421       .  A
C3701      C3702   1.401       .  A
C3701      C3708   1.511       .  S
C3702      H3707   1.082       .  S
C3703      C3704   1.430       .  A
C3704      C3705   1.510       .  S
C3705      H3709   1.111       .  S
C3705      H3710   1.110       .  S
C3705      H3711   1.109       .  S
C3708      H3712   1.108       .  S
C3708      H3713   1.106       .  S
C3708      H3714   1.111       .  S
C3715      C3720   1.407       .  A
C3715      H3722   1.084       .  S
C3716      C4275   1.431       .  A
C3717      C4274   1.431   1_554  A
C3717      C3718   1.407       .  A
C3717      C3724   1.505       .  S
C3718      H3723   1.085       .  S
C3719      C4278   1.417       .  A
C3720      C4277   1.417       .  A
C3720      C3721   1.507       .  S
C3721      H3725   1.111       .  S
C3721      H4284   1.107       .  S
C3721      H3727   1.109       .  S
C3724      H3728   1.110   1_554  S
C3724      H4287   1.106   1_554  S
C3724      H3730   1.111       .  S
H3726      C4279   1.107   1_554  S
H3729      C4282   1.106       .  S
C3731      C3732   1.407       .  A
C3731      C3736   1.413       .  A
C3731      H3738   1.083       .  S
C3732      C3733   1.435       .  A
C3733      C3734   1.386       .  A
C3733      C3740   1.520       .  S
C3737      H3742   1.110       .  S
C3737      H3743   1.109       .  S
C3740      H3744   1.107       .  S
C3740      H3745   1.108       .  S
C3740      H3746   1.110       .  S
C3747      C3748   1.399       .  A
C3747      C3752   1.400       .  A
C3747      H3754   1.085       .  S
C3748      C3749   1.413       .  A
C3749      C3750   1.409       .  A
C3749      C3756   1.507       .  S
C3750      C3751   1.406       .  A
C3750      H3755   1.078       .  S
C3751      C3752   1.423       .  A
C3752      C3753   1.506       .  S
C3753      H3757   1.111       .  S
C3753      H3758   1.109       .  S
C3753      H3759   1.100       .  S
C3756      H3760   1.111       .  S
C3756      H3761   1.110       .  S
C3756      H3762   1.111       .  S
C3763      C3764   1.404       .  A
C3763      C3768   1.404       .  A
C3763      H3770   1.084       .  S
C3764      C3765   1.424       .  A
C3765      C3766   1.405       .  A
C3765      C3772   1.510       .  S
C3766      C3767   1.403       .  A
C3766      H3771   1.084       .  S
C3767      C3768   1.423       .  A
C3768      C3769   1.510       .  S
C3769      H3773   1.111       .  S
C3769      H3774   1.110       .  S
C3769      H3775   1.111       .  S
C3772      H3776   1.110       .  S
C3772      H3777   1.110       .  S
C3772      H3778   1.111       .  S
C3779      C3784   1.403       .  A
C3779      H3786   1.084       .  S
C3780      C4339   1.424       .  A
C3781      C4338   1.424       .  A
C3781      C3782   1.402   1_556  A
C3781      C3788   1.510       .  S
C3782      H3787   1.084       .  S
C3783      C4342   1.421   1_554  A
C3784      C4341   1.421       .  A
C3784      C3785   1.509       .  S
C3785      H3789   1.111       .  S
C3785      H3790   1.110       .  S
C3785      H4349   1.109       .  S
C3788      H4350   1.109       .  S
C3788      H3793   1.109       .  S
C3788      H3794   1.111   1_556  S
H3791      C4343   1.109   1_554  S
H3792      C4346   1.109       .  S
C3795      C3796   1.405       .  A
C3795      C3800   1.410       .  A
C3795      H3802   1.085       .  S
C3797      C3798   1.394       .  A
C3797      C3804   1.506       .  S
C3798      C3799   1.401       .  A
C3798      H3803   1.079       .  S
C3800      C3801   1.506       .  S
C3801      H3805   1.111       .  S
C3801      H3806   1.110       .  S
C3801      H3807   1.111       .  S
C3804      H3808   1.106       .  S
C3804      H3809   1.106       .  S
C3804      H3810   1.111       .  S
C3811      C3812   1.403       .  A
C3811      C3816   1.398       .  A
C3811      H3818   1.084       .  S
C3812      C3813   1.419       .  A
C3813      C3814   1.403       .  A
C3813      C3820   1.500       .  S
C3814      C3815   1.397       .  A
C3814      H3819   1.084       .  S
C3815      C3816   1.412       .  A
C3816      C3817   1.502   1_565  S
C3817      H3821   1.111       .  S
C3817      H3823   1.104       .  S
C3820      H3824   1.110       .  S
C3820      H3825   1.108       .  S
C3820      H3826   1.111       .  S
C3827      C3828   1.406       .  A
C3827      C3832   1.409       .  A
C3827      H3834   1.084       .  S
C3828      C3829   1.412       .  A
C3829      C3830   1.386       .  A
C3829      C3836   1.509       .  S
C3830      C3831   1.401       .  A
C3830      H3835   1.084       .  S
C3831      C3832   1.413       .  A
C3832      C3833   1.505       .  S
C3833      H3837   1.111       .  S
C3833      H3838   1.110       .  S
C3833      H3839   1.110       .  S
C3836      H3840   1.105       .  S
C3843      C3844   1.404       .  A
C3843      C3848   1.405       .  A
C3844      C3845   1.424       .  A
C3845      C3846   1.415       .  A
C3845      C3852   1.507       .  S
C3846      C3847   1.408       .  A
C3846      H3851   1.084       .  S
C3847      C3848   1.419       .  A
C3848      C3849   1.504       .  S
C3849      H3853   1.110       .  S
C3852      H3856   1.110       .  S
C3852      H3857   1.105       .  S
C3852      H3858   1.111       .  S
C3859      C3860   1.399       .  A
C3859      C3864   1.400       .  A
C3859      H3866   1.080       .  S
C3860      C3861   1.414       .  A
C3861      C3862   1.405       .  A
C3861      C3868   1.504       .  S
C3862      C3863   1.406       .  A
C3862      H3867   1.085       .  S
C3863      C3864   1.415       .  A
C3864      C3865   1.507       .  S
C3865      H3869   1.111       .  S
C3865      H3870   1.109       .  S
C3865      H3871   1.110       .  S
C3868      H3872   1.110       .  S
C3868      H3873   1.104       .  S
C3868      H3874   1.110       .  S
C3875      C4434   1.406       .  A
C3875      C3880   1.414       .  A
C3875      H3882   1.084       .  S
C3876      C4433   1.406       .  A
C3876      C3877   1.410       .  A
C3877      C3878   1.392   1_554  A
C3877      C3884   1.510       .  S
C3878      C4437   1.406       .  A
C3878      H3883   1.083       .  S
C3879      C4436   1.406       .  A
C3879      C3880   1.415       .  A
C3880      C3881   1.500       .  S
C3881      H3885   1.111       .  S
C3881      H3886   1.108       .  S
C3881      H3887   1.110       .  S
C3884      H3888   1.102       .  S
C3884      H3889   1.109       .  S
C3884      H3890   1.111       .  S
C3891      C3892   1.404       .  A
C3891      C3896   1.409       .  A
C3891      H3898   1.084       .  S
C3892      C3893   1.415       .  A
C3893      C3894   1.408       .  A
C3893      C3900   1.508       .  S
C3894      C3895   1.408       .  A
C3894      H3899   1.084       .  S
C3895      C3896   1.418       .  A
C3896      C3897   1.504       .  S
C3897      H3901   1.111       .  S
C3897      H3902   1.107       .  S
C3897      H3903   1.110       .  S
C3900      H3904   1.111       .  S
C3900      H3905   1.109       .  S
C3900      H3906   1.111       .  S
O3907      C3915   1.265       .  A
O3907     Co3927   1.889       .  S
O3908      C3916   1.246       .  A
O3908     Co3928   1.932       .  S
O3909      C3917   1.268       .  A
O3909     Co3929   2.055       .  S
O3910      C3918   1.279       .  A
O3910     Co3930   2.030       .  S
O3911      C3917   1.245       .  A
O3911     Co3928   1.934       .  S
O3912      C3918   1.274       .  A
O3912     Co3927   1.989       .  S
O3913      C3916   1.273       .  A
O3913     Co3930   2.050       .  S
O3914      C3915   1.293       .  A
O3914     Co3929   2.097       .  S
C3915      C4370   1.485       .  S
C3916      C4338   1.475       .  S
C3917      C4437   1.491       .  S
O3919      C3932   1.260       .  A
O3919     Co3927   2.003       .  S
O3920      C3933   1.277       .  A
O3920     Co3928   2.026       .  S
O3921      C3934   1.270       .  A
O3921     Co3929   1.913       .  S
O3922      C3935   1.256       .  A
O3922     Co3930   1.938       .  S
O3923      C3935   1.270       .  A
O3923     Co3928   2.027       .  S
O3924      C3934   1.294       .  A
O3924     Co3927   2.094       .  S
O3925      C3932   1.255       .  A
O3925     Co3930   1.978       .  S
O3926      C3933   1.267       .  A
O3926     Co3929   1.976       .  S
Co3927     O3931   2.003       .  S
Co3928     O3931   2.010       .  S
Co3929     O3931   2.028       .  S
Co3930     O3931   2.030       .  S
C3932      C4354   1.477       .  S
C3933      C4418   1.476       .  S
C3934      C4450   1.488       .  S
C3935      C4389   1.473       .  S
O3936      C3944   1.248       .  A
O3936     Co3956   1.939       .  S
O3937      C3945   1.250       .  A
O3937     Co3957   1.997       .  S
O3938      C3946   1.250       .  A
O3939      C3947   1.282       .  A
O3939     Co3959   2.051       .  S
O3940     Co3957   1.990       .  S
O3941      C3947   1.248       .  A
O3941     Co3956   1.913       .  S
O3942      C3945   1.240       .  A
O3942     Co3959   1.960       .  S
O3943      C3944   1.269       .  A
O3943     Co3958   2.032       .  S
C3944      C4258   1.472       .  S
C3946      C4306   1.481       .  S
C3947      C4290   1.491       .  S
O3948      C3961   1.259       .  A
O3948     Co3956   1.994       .  S
O3949      C3962   1.286       .  A
O3949     Co3957   2.024       .  S
O3950      C3963   1.256       .  A
O3950     Co3958   1.985       .  S
O3951      C3964   1.282       .  A
O3951     Co3959   1.940       .  S
O3952      C3964   1.287       .  A
O3952     Co3957   2.036       .  S
O3953      C3963   1.266       .  A
O3953     Co3956   2.005       .  S
O3954      C3961   1.260       .  A
O3954     Co3959   1.994       .  S
O3955      C3962   1.275       .  A
O3955     Co3958   1.931       .  S
Co3956     O3960   2.053       .  S
Co3957     O3960   2.225       .  S
Co3958     O3960   1.974       .  S
Co3959     O3960   1.950       .  S
C3961      C4325   1.493       .  S
C3962      C4242   1.478       .  S
C3963      C4386   1.467       .  S
C3964      C4274   1.501       .  S
O3965      C3973   1.253       .  A
O3965     Co3985   1.972       .  S
O3966      C3974   1.280       .  A
O3966     Co3986   2.046       .  S
O3967      C3975   1.251       .  A
O3967     Co3987   2.003       .  S
O3968      C3976   1.248       .  A
O3968     Co3988   1.944       .  S
O3969      C3975   1.247       .  A
O3969     Co3986   1.992       .  S
O3970      C3976   1.267       .  A
O3970     Co3985   2.030       .  S
O3971      C3974   1.256       .  A
O3971     Co3988   1.912       .  S
O3972      C3973   1.260       .  A
O3972     Co3987   1.994       .  S
C3974      C4146   1.488   1_565  S
C3976      C4341   1.472       .  S
O3977      C3990   1.259       .  A
O3977     Co3985   1.983       .  S
O3978      C3991   1.282       .  A
O3978     Co3986   1.913       .  S
O3979      C3992   1.288       .  A
O3979     Co3987   2.020       .  S
O3980      C3993   1.256       .  A
O3980     Co3988   1.981       .  S
O3981      C3993   1.263       .  A
O3981     Co3986   2.007       .  S
O3982      C3992   1.274       .  A
O3982     Co3985   1.938       .  S
O3983      C3990   1.270       .  A
O3983     Co3988   2.028       .  S
O3984      C3991   1.298       .  A
O3984     Co3987   2.065       .  S
Co3985     O3989   1.992       .  S
Co3986     O3989   1.949       .  S
Co3987     O3989   2.228       .  S
Co3988     O3989   2.056       .  S
C3990      C4197   1.495       .  S
C3991      C4165   1.502       .  S
C3992      C4357   1.489       .  S
C3993      C4213   1.497       .  S
O3994      C4002   1.255       .  A
O3994     Co4014   1.991       .  S
O3995      C4003   1.277       .  A
O3995     Co4015   2.040       .  S
O3996      C4004   1.255       .  A
O3996     Co4016   1.944       .  S
O3997      C4005   1.257       .  A
O3997     Co4017   1.873       .  S
O3998      C4004   1.275       .  A
O3998     Co4015   2.045       .  S
O3999      C4005   1.306       .  A
O3999     Co4014   2.149       .  S
O4000      C4003   1.271       .  A
O4000     Co4017   1.979       .  S
O4001      C4002   1.254       .  A
O4001     Co4016   1.958       .  S
C4002      C4117   1.464       .  S
C4004      C4162   1.477       .  S
C4005      C4309   1.494       .  S
O4006      C4019   1.260       .  A
O4006     Co4014   1.880       .  S
O4007      C4020   1.256       .  A
O4007     Co4015   1.957       .  S
O4008      C4021   1.276       .  A
O4008     Co4016   2.016       .  S
O4009      C4022   1.259       .  A
O4009     Co4017   1.978       .  S
O4010      C4022   1.255       .  A
O4010     Co4015   1.978       .  S
O4011      C4021   1.270       .  A
O4011     Co4014   1.973       .  S
O4012      C4019   1.302       .  A
O4012     Co4017   2.118       .  S
O4013      C4020   1.275       .  A
O4013     Co4016   2.028       .  S
Co4014     O4018   2.022       .  S
Co4015     O4018   2.053       .  S
Co4016     O4018   2.019       .  S
Co4017     O4018   1.979       .  S
C4019      C4130   1.486       .  S
C4020      C4322   1.495       .  S
C4021      C4421   1.480       .  S
C4022      C4149   1.482       .  S
O4023      C4031   1.273       .  A
O4023     Co4043   2.051       .  S
O4024      C4032   1.271       .  A
O4024     Co4044   1.919       .  S
O4025      C4033   1.274       .  A
O4025     Co4045   1.903       .  S
O4026      C4034   1.264       .  A
O4026     Co4046   1.973       .  S
O4027      C4033   1.296       .  A
O4027     Co4044   2.054       .  S
O4028      C4034   1.271       .  A
O4028     Co4043   2.032       .  S
O4029      C4032   1.279       .  A
O4029     Co4046   2.024       .  S
O4030      C4031   1.255       .  A
O4030     Co4045   1.999       .  S
C4032      C4133   1.488       .  S
C4033      C4245   1.461       .  S
C4034      C4181   1.506       .  S
O4035      C4048   1.253       .  A
O4035     Co4043   1.961       .  S
O4036      C4049   1.254       .  A
O4036     Co4044   1.992       .  S
O4037      C4050   1.273       .  A
O4037     Co4045   2.038       .  S
O4038      C4051   1.259       .  A
O4038     Co4046   1.994       .  S
O4039      C4051   1.249       .  A
O4039     Co4044   1.957       .  S
O4040      C4050   1.245       .  A
O4040     Co4043   1.946       .  S
O4041      C4048   1.258       .  A
O4041     Co4046   1.989       .  S
O4042      C4049   1.252       .  A
O4042     Co4045   1.994       .  S
Co4043     O4047   2.064       .  S
Co4044     O4047   2.074       .  S
Co4045     O4047   1.943       .  S
Co4046     O4047   2.117       .  S
C4048      C4114   1.478       .  S
C4049      C4194   1.495       .  S
C4050      C4261   1.488       .  S
C4051      C4098   1.479       .  S
O4052      C4060   1.263       .  A
O4052     Co4072   1.895       .  S
O4053      C4061   1.252       .  A
O4053     Co4073   1.940       .  S
O4054      C4062   1.268       .  A
O4054     Co4074   2.033       .  S
O4055      C4063   1.285       .  A
O4055     Co4075   2.055       .  S
O4056      C4062   1.247       .  A
O4056     Co4073   1.942       .  S
O4057      C4063   1.270       .  A
O4057     Co4072   1.980       .  S
O4058      C4061   1.274       .  A
O4058     Co4075   2.043       .  S
O4059      C4060   1.288       .  A
O4059     Co4074   2.092       .  S
C4060      C4226   1.484       .  S
C4061      C4277   1.479       .  S
C4062      C4434   1.472       .  S
O4064      C4077   1.260       .  A
O4064     Co4072   1.978       .  S
O4065      C4078   1.276       .  A
O4065     Co4073   2.031       .  S
O4066      C4079   1.270       .  A
O4066     Co4074   1.925       .  S
O4067      C4080   1.257       .  A
O4067     Co4075   1.963       .  S
O4068      C4080   1.274       .  A
O4068     Co4073   2.023       .  S
O4069      C4079   1.291       .  A
O4069     Co4072   2.088       .  S
O4070      C4077   1.252       .  A
O4070     Co4075   1.982       .  S
O4071      C4078   1.261       .  A
O4071     Co4074   1.961       .  S
Co4072     O4076   2.008       .  S
Co4073     O4076   2.033       .  S
Co4074     O4076   2.042       .  S
Co4075     O4076   2.051       .  S
C4077      C4293   1.477       .  S
C4078      C4101   1.472       .  S
C4079      C4453   1.496       .  S
C4080      C4210   1.495       .  S
C4081      C4082   1.411       .  A
C4081      C4086   1.411       .  A
C4081      H4088   1.083       .  S
C4082      C4083   1.425       .  A
C4083      C4084   1.418       .  A
C4083      C4090   1.507       .  S
C4084      C4085   1.407       .  A
C4085      C4086   1.415       .  A
C4086      C4087   1.505       .  S
C4087      H4091   1.111       .  S
C4087      H4092   1.109       .  S
C4087      H4093   1.110       .  S
C4090      H4096   1.111       .  S
C4097      C4098   1.401       .  A
C4097      C4102   1.402       .  A
C4097      H4104   1.084       .  S
C4098      C4099   1.422       .  A
C4099      C4100   1.404       .  A
C4099      C4106   1.508       .  S
C4100      C4101   1.398       .  A
C4100      H4105   1.084       .  S
C4101      C4102   1.414       .  A
C4102      C4103   1.505       .  S
C4103      H4107   1.111       .  S
C4103      H4108   1.109       .  S
C4103      H4109   1.109       .  S
C4106      H4110   1.107       .  S
C4106      H4111   1.110       .  S
C4106      H4112   1.111       .  S
C4113      C4114   1.408       .  A
C4113      C4118   1.399       .  A
C4113      H4120   1.084       .  S
C4114      C4115   1.420       .  A
C4115      C4116   1.394       .  A
C4115      C4122   1.510       .  S
C4116      C4117   1.398       .  A
C4116      H4121   1.085       .  S
C4117      C4118   1.408       .  A
C4118      C4119   1.503       .  S
C4119      H4123   1.111       .  S
C4119      H4124   1.110       .  S
C4119      H4125   1.103       .  S
C4122      H4126   1.110       .  S
C4122      H4127   1.110       .  S
C4122      H4128   1.111       .  S
C4129      C4134   1.393       .  A
C4129      H4136   1.084       .  S
C4130      C4131   1.425       .  A
C4131      C4138   1.508       .  S
C4132      C4133   1.402       .  A
C4132      H4137   1.084       .  S
C4133      C4134   1.426       .  A
C4134      C4135   1.509       .  S
C4135      H4139   1.111       .  S
C4135      H4140   1.110       .  S
C4135      H4141   1.109       .  S
C4138      H4142   1.110       .  S
C4138      H4143   1.109       .  S
C4138      H4144   1.111       .  S
C4145      C4150   1.384   1_564  A
C4145      H4152   1.084       .  S
C4147      C4148   1.415       .  A
C4147      C4154   1.503       .  S
C4148      H4153   1.083       .  S
C4150      C4151   1.515       .  S
C4151      H4155   1.111   1_545  S
C4151      H4156   1.109   1_545  S
C4151      H4157   1.109       .  S
C4154      H4158   1.110       .  S
C4154      H4159   1.111       .  S
C4154      H4160   1.111       .  S
C4161      C4162   1.396       .  A
C4161      H4168   1.084       .  S
C4162      C4163   1.414       .  A
C4163      C4164   1.404       .  A
C4163      C4170   1.509       .  S
C4164      H4169   1.083       .  S
C4165      C4166   1.428       .  A
C4166      C4167   1.503       .  S
C4167      H4171   1.111       .  S
C4167      H4172   1.110       .  S
C4167      H4173   1.104       .  S
C4170      H4174   1.110       .  S
C4170      H4175   1.109       .  S
C4170      H4176   1.111       .  S
C4177      C4178   1.411       .  A
C4177      C4182   1.412       .  A
C4177      H4184   1.083       .  S
C4178      C4179   1.419       .  A
C4179      C4180   1.407       .  A
C4179      C4186   1.504       .  S
C4180      C4181   1.406       .  A
C4180      H4185   1.077       .  S
C4181      C4182   1.420       .  A
C4182      C4183   1.508       .  S
C4183      H4187   1.111       .  S
C4183      H4188   1.111       .  S
C4183      H4189   1.109       .  S
C4186      H4190   1.108       .  S
C4186      H4191   1.110       .  S
C4186      H4192   1.110       .  S
C4193      C4194   1.407       .  A
C4193      C4198   1.407       .  A
C4193      H4200   1.084       .  S
C4194      C4195   1.420       .  A
C4195      C4196   1.406       .  A
C4195      C4202   1.509       .  S
C4196      C4197   1.407       .  A
C4196      H4201   1.084       .  S
C4197      C4198   1.418       .  A
C4198      C4199   1.506       .  S
C4199      H4203   1.111       .  S
C4199      H4204   1.107       .  S
C4199      H4205   1.109       .  S
C4202      H4206   1.110       .  S
C4202      H4207   1.110       .  S
C4202      H4208   1.111       .  S
C4209      C4210   1.400       .  A
C4209      C4214   1.401       .  A
C4209      H4216   1.081       .  S
C4210      C4211   1.422       .  A
C4211      C4212   1.411       .  A
C4211      C4218   1.508       .  S
C4212      C4213   1.405       .  A
C4212      H4217   1.083       .  S
C4213      C4214   1.427       .  A
C4214      C4215   1.513       .  S
C4215      H4219   1.111       .  S
C4215      H4220   1.111       .  S
C4215      H4221   1.110       .  S
C4218      H4222   1.109       .  S
C4218      H4223   1.110       .  S
C4218      H4224   1.111       .  S
C4225      C4226   1.401       .  A
C4225      C4230   1.396       .  A
C4225      H4232   1.085       .  S
C4226      C4227   1.425       .  A
C4227      C4228   1.407       .  A
C4227      C4234   1.510       .  S
C4228      C4229   1.403       .  A
C4228      H4233   1.085       .  S
C4229      C4230   1.413       .  A
C4231      H4235   1.111       .  S
C4231      H4236   1.109       .  S
C4231      H4237   1.108       .  S
C4234      H4238   1.110       .  S
C4234      H4239   1.101       .  S
C4234      H4240   1.110       .  S
C4241      H4248   1.080       .  S
C4243      C4250   1.506       .  S
C4244      C4245   1.404       .  A
C4244      H4249   1.085       .  S
C4245      C4246   1.403       .  A
C4246      C4247   1.507       .  S
C4247      H4253   1.110       .  S
C4250      H4254   1.110       .  S
C4250      H4255   1.110       .  S
C4250      H4256   1.111       .  S
C4257      C4262   1.403       .  A
C4257      H4264   1.085       .  S
C4258      C4259   1.421       .  A
C4259      C4260   1.401       .  A
C4259      C4266   1.511       .  S
C4260      H4265   1.082       .  S
C4261      C4262   1.430       .  A
C4262      C4263   1.510       .  S
C4263      H4267   1.111       .  S
C4263      H4268   1.110       .  S
C4263      H4269   1.109       .  S
C4266      H4270   1.108       .  S
C4266      H4271   1.106       .  S
C4266      H4272   1.111       .  S
C4273      C4278   1.407   1_556  A
C4273      H4280   1.084       .  S
C4275      C4276   1.407       .  A
C4275      C4282   1.505       .  S
C4276      H4281   1.085       .  S
C4278      C4279   1.507   1_554  S
C4279      H4283   1.111       .  S
C4279      H4285   1.109   1_556  S
C4282      H4286   1.110       .  S
C4282      H4288   1.111       .  S
C4289      C4290   1.407       .  A
C4289      C4294   1.413       .  A
C4289      H4296   1.083       .  S
C4290      C4291   1.435       .  A
C4291      C4292   1.386       .  A
C4291      C4298   1.520       .  S
C4295      H4300   1.110       .  S
C4295      H4301   1.109       .  S
C4298      H4302   1.107       .  S
C4298      H4303   1.108       .  S
C4298      H4304   1.110       .  S
C4305      C4306   1.399       .  A
C4305      C4310   1.400       .  A
C4305      H4312   1.085       .  S
C4306      C4307   1.413       .  A
C4307      C4308   1.409       .  A
C4307      C4314   1.507       .  S
C4308      C4309   1.406       .  A
C4308      H4313   1.078       .  S
C4309      C4310   1.423       .  A
C4310      C4311   1.506       .  S
C4311      H4315   1.111       .  S
C4311      H4316   1.109       .  S
C4311      H4317   1.100       .  S
C4314      H4318   1.111       .  S
C4314      H4319   1.110       .  S
C4314      H4320   1.111       .  S
C4321      C4322   1.404       .  A
C4321      C4326   1.404       .  A
C4321      H4328   1.084       .  S
C4322      C4323   1.424       .  A
C4323      C4324   1.405       .  A
C4323      C4330   1.510       .  S
C4324      C4325   1.403       .  A
C4324      H4329   1.084       .  S
C4325      C4326   1.423       .  A
C4326      C4327   1.510       .  S
C4327      H4331   1.111       .  S
C4327      H4332   1.110       .  S
C4327      H4333   1.111       .  S
C4330      H4334   1.110       .  S
C4330      H4335   1.110       .  S
C4330      H4336   1.111       .  S
C4337      C4342   1.403       .  A
C4337      H4344   1.084       .  S
C4339      C4340   1.402       .  A
C4339      C4346   1.510       .  S
C4340      H4345   1.084       .  S
C4342      C4343   1.509       .  S
C4343      H4347   1.111       .  S
C4343      H4348   1.110   1_556  S
C4346      H4351   1.109       .  S
C4346      H4352   1.111       .  S
C4353      C4354   1.405       .  A
C4353      C4358   1.410       .  A
C4353      H4360   1.085       .  S
C4355      C4356   1.394       .  A
C4355      C4362   1.506       .  S
C4356      C4357   1.401       .  A
C4356      H4361   1.079       .  S
C4358      C4359   1.506       .  S
C4359      H4363   1.111       .  S
C4359      H4364   1.110       .  S
C4359      H4365   1.111       .  S
C4362      H4366   1.106       .  S
C4362      H4367   1.106       .  S
C4362      H4368   1.111       .  S
C4369      C4370   1.403       .  A
C4369      C4374   1.398       .  A
C4369      H4376   1.084       .  S
C4370      C4371   1.419       .  A
C4371      C4372   1.403       .  A
C4371      C4378   1.500       .  S
C4372      C4373   1.397       .  A
C4372      H4377   1.084       .  S
C4373      C4374   1.412       .  A
C4374      C4375   1.502   1_565  S
C4375      H4379   1.111       .  S
C4375      H4381   1.104       .  S
C4378      H4382   1.110       .  S
C4378      H4383   1.108       .  S
C4378      H4384   1.111       .  S
C4385      C4386   1.406       .  A
C4385      C4390   1.409       .  A
C4385      H4392   1.084       .  S
C4386      C4387   1.412       .  A
C4387      C4388   1.386       .  A
C4387      C4394   1.509       .  S
C4388      C4389   1.401       .  A
C4388      H4393   1.084       .  S
C4389      C4390   1.413       .  A
C4390      C4391   1.505       .  S
C4391      H4395   1.111       .  S
C4391      H4396   1.110       .  S
C4391      H4397   1.110       .  S
C4394      H4398   1.105       .  S
C4401      C4402   1.404       .  A
C4401      C4406   1.405       .  A
C4402      C4403   1.424       .  A
C4403      C4404   1.415       .  A
C4403      C4410   1.507       .  S
C4404      C4405   1.408       .  A
C4404      H4409   1.084       .  S
C4405      C4406   1.419       .  A
C4406      C4407   1.504       .  S
C4407      H4411   1.110       .  S
C4410      H4414   1.110       .  S
C4410      H4415   1.105       .  S
C4410      H4416   1.111       .  S
C4417      C4418   1.399       .  A
C4417      C4422   1.400       .  A
C4417      H4424   1.080       .  S
C4418      C4419   1.414       .  A
C4419      C4420   1.405       .  A
C4419      C4426   1.504       .  S
C4420      C4421   1.406       .  A
C4420      H4425   1.085       .  S
C4421      C4422   1.415       .  A
C4422      C4423   1.507       .  S
C4423      H4427   1.111       .  S
C4423      H4428   1.109       .  S
C4423      H4429   1.110       .  S
C4426      H4430   1.110       .  S
C4426      H4431   1.104       .  S
C4426      H4432   1.110       .  S
C4433      C4438   1.414   1_554  A
C4433      H4440   1.084       .  S
C4434      C4435   1.410       .  A
C4435      C4436   1.392       .  A
C4435      C4442   1.510       .  S
C4436      H4441   1.083       .  S
C4437      C4438   1.415       .  A
C4438      C4439   1.500       .  S
C4439      H4443   1.111       .  S
C4439      H4444   1.108       .  S
C4439      H4445   1.110       .  S
C4442      H4446   1.102       .  S
C4442      H4447   1.109       .  S
C4442      H4448   1.111       .  S
C4449      C4450   1.404       .  A
C4449      C4454   1.409       .  A
C4449      H4456   1.084       .  S
C4450      C4451   1.415       .  A
C4451      C4452   1.408       .  A
C4451      C4458   1.508       .  S
C4452      C4453   1.408       .  A
C4452      H4457   1.084       .  S
C4453      C4454   1.418       .  A
C4454      C4455   1.504       .  S
C4455      H4459   1.111       .  S
C4455      H4460   1.107       .  S
C4455      H4461   1.110       .  S
C4458      H4462   1.111       .  S
C4458      H4463   1.109       .  S
C4458      H4464   1.111       .  S
