geometry optimzed in LAMMPS
_audit_creation_date              2020-11-30 
_audit_creation_method            'lammps2cif' 
_symmetry_space_group_name_H-M    'P1' 
_symmetry_Int_Tables_number       1 
_symmetry_cell_setting            triclinic 
loop_ 
_symmetry_equiv_pos_as_xyz 
  x,y,z 
_cell_length_a                    57.01970725 
_cell_length_b                    56.30631914306964 
_cell_length_c                    56.661556340607405 
_cell_angle_alpha                 89.66773883278877 
_cell_angle_beta                  90.10063852747172 
_cell_angle_gamma                 90.18773162154395 
loop_ 
_atom_site_label 
_atom_site_type_symbol 
_atom_site_fract_x 
_atom_site_fract_y 
_atom_site_fract_z 
_atom_site_charge 
C1          C  0.71777463  0.69820877  0.68839456     0.81000
N2          N  0.71972398  0.68089654  0.70513045    -0.77300
C3          C  0.70718548  0.68212484  0.72545734     0.83400
N4          N  0.69219782  0.70045613  0.72871944    -0.77200
C5          C  0.68987819  0.71777430  0.71217637     0.83500
N6          N  0.70260225  0.71650612  0.69185063    -0.79000
C7          C  0.45680462  0.48625524  0.45845207     0.81000
N8          N  0.47080837  0.48304647  0.43942619    -0.77300
C9          C  0.48570093  0.46430672  0.43842716     0.83400
N10         N  0.48673853  0.44877743  0.45685980    -0.77200
C11         C  0.47250826  0.45153481  0.47587396     0.83500
N12         N  0.45779740  0.47049427  0.47674154    -0.79000
C13         C  0.21101476  0.18515423  0.21994143     0.81000
N14         N  0.19498142  0.20292221  0.22030832    -0.77300
C15         C  0.19473290  0.21977701  0.20304936     0.83400
N16         N  0.21029024  0.21838116  0.18493759    -0.77200
C17         C  0.22645673  0.20068826  0.18442506     0.83500
N18         N  0.22654120  0.18399396  0.20183279    -0.79000
C19         C  0.96920104  0.47429272  0.46879403     0.81000
N20         N  0.96755162  0.45705431  0.45217880    -0.77300
C21         C  0.94847226  0.44255492  0.45136221     0.83400
N22         N  0.93076704  0.44572631  0.46700141    -0.77200
C23         C  0.93220968  0.46294044  0.48365263     0.83500
N24         N  0.95132230  0.47737613  0.48428925    -0.79000
C25         C  0.46762467  0.40619060  0.96353609     0.81000
N26         N  0.48360700  0.40730346  0.98124030    -0.77300
C27         C  0.50009506  0.42470249  0.98158836     0.83400
N28         N  0.50065422  0.44104647  0.96388302    -0.77200
C29         C  0.48458235  0.44037106  0.94614622     0.83500
N30         N  0.46827025  0.42264223  0.94578466    -0.79000
C31         C  0.94684043  0.44838471  0.96428479     0.81000
N32         N  0.94457290  0.46479445  0.98163659    -0.77300
C33         C  0.96084997  0.46632732  0.99910870     0.83400
N34         N  0.97912171  0.45093388  0.99947914    -0.77200
C35         C  0.98147778  0.43440788  0.98232196     0.83500
N36         N  0.96515744  0.43304024  0.96488607    -0.79000
C37         C  0.20687094  0.73841110  0.21994679     0.81000
N38         N  0.18922891  0.72207626  0.22072132    -0.77300
C39         C  0.18920125  0.70475542  0.23755552     0.83400
N40         N  0.20658395  0.70422067  0.25400741    -0.77200
C41         C  0.22426677  0.72043082  0.25332996     0.83500
N42         N  0.22422902  0.73751664  0.23632807    -0.79000
C43         C  0.24335351  0.68881841  0.71976087     0.81000
N44         N  0.22571903  0.68582966  0.70391026    -0.77300
C45         C  0.20933628  0.70292902  0.70058482     0.83400
N46         N  0.21078356  0.72339794  0.71320763    -0.77200
C47         C  0.22830259  0.72657806  0.72922162     0.83500
N48         N  0.24476692  0.70937726  0.73215103    -0.79000
C49         C  0.68505812  0.19637903  0.72291246     0.81000
N50         N  0.68326318  0.21434834  0.70691544    -0.77300
C51         C  0.69886526  0.23259531  0.70701620     0.83400
N52         N  0.71611224  0.23303703  0.72357764    -0.77200
C53         C  0.71807491  0.21520327  0.73970538     0.83500
N54         N  0.70230674  0.19704363  0.73949699    -0.79000
C55         C  0.72414466  0.21519809  0.22331262     0.81000
N56         N  0.70658410  0.21504010  0.20703446    -0.77300
C57         C  0.70563019  0.19778431  0.19034055     0.83400
N58         N  0.72284085  0.18117655  0.18949157    -0.77200
C59         C  0.74049786  0.18126914  0.20559950     0.83500
N60         N  0.74111221  0.19838392  0.22236837    -0.79000
C61         C  0.72685580  0.71105096  0.21664702     0.81000
N62         N  0.71071319  0.70951570  0.23419351    -0.77300
C63         C  0.69668077  0.69008575  0.23623956     0.83400
N64         N  0.69915915  0.67189758  0.22079888    -0.77200
C65         C  0.71521841  0.67325534  0.20313803     0.83500
N66         N  0.72926509  0.69272611  0.20135205    -0.79000
C67         C  0.42466896  0.95582117  0.97705115     0.81000
N68         N  0.42489267  0.94151360  0.95778320    -0.77300
C69         C  0.44323301  0.94229231  0.94242449     0.83400
N70         N  0.46104535  0.95797300  0.94615807    -0.77200
C71         C  0.46085498  0.97249085  0.96530645     0.83500
N72         N  0.44255536  0.97138885  0.98051214    -0.79000
C73         C  0.46917021  0.97051321  0.48810095     0.81000
N74         N  0.45117503  0.97056310  0.47224653    -0.77300
C75         C  0.45014249  0.95394770  0.45495782     0.83400
N76         N  0.46688154  0.93688086  0.45395952    -0.77200
C77         C  0.48495418  0.93671487  0.46959485     0.83500
N78         N  0.48590915  0.95349065  0.48670889    -0.79000
C79         C  0.20867813  0.19477222  0.70286809     0.81000
N80         N  0.19269564  0.19369056  0.72059432    -0.77300
C81         C  0.19195147  0.21088478  0.73727586     0.83400
N82         N  0.20764307  0.22907123  0.73638751    -0.77200
C83         C  0.22364873  0.23044296  0.71868931     0.83500
N84         N  0.22430774  0.21305830  0.70214362    -0.79000
N85         N  0.79373386  0.51829967  0.14577592    -0.26500
N86         N  0.79557123  0.53856967  0.15726538    -0.34400
C87         C  0.81823315  0.54284137  0.16235725     0.01800
C88         C  0.83143557  0.52448173  0.15340538     0.07900
C89         C  0.81537112  0.50925288  0.14292793    -0.05200
H90         H  0.82467703  0.55870769  0.17091771     0.08500
H91         H  0.81917905  0.49306664  0.13350202     0.09700
Cu92       Cu  0.76744077  0.56045960  0.16338800     0.44200
Cu93       Cu  0.76159699  0.50505368  0.13377019     0.42000
Cu94       Cu  0.70986872  0.54326169  0.14284016     0.43900
N95         N  0.73814970  0.58140246  0.16677473    -0.33900
N96         N  0.71675257  0.57531481  0.16007165    -0.28100
C97         C  0.70188729  0.59290530  0.16604970    -0.04200
C98         C  0.71480261  0.61096249  0.17647698     0.08000
C99         C  0.73765343  0.60294850  0.17667611     0.01800
H100        H  0.68317557  0.59267457  0.16286324     0.09400
H101        H  0.75282243  0.61184095  0.18402810     0.08500
N102        N  0.70919898  0.51064277  0.12527841    -0.35300
N103        N  0.72765910  0.49673044  0.12239161    -0.27500
C104        C  0.72094618  0.47712912  0.11055848    -0.02800
C105        C  0.69722865  0.47883569  0.10555106     0.05800
C106        C  0.69040657  0.50032466  0.11510638     0.03900
H107        H  0.73259177  0.46288078  0.10559731     0.09000
H108        H  0.67300465  0.50791685  0.11474634     0.07900
N109        N  0.59233566  0.43479624  0.03240255    -0.26500
N110        N  0.59079766  0.41403067  0.02180844    -0.34400
C111        C  0.57045989  0.41257591  0.01008182     0.01800
C112        C  0.55846364  0.43356109  0.01311989     0.07900
C113        C  0.57291323  0.44747979  0.02717019    -0.05200
H114        H  0.56502032  0.39743436  0.99972150     0.08500
H115        H  0.56946007  0.46528076  0.03331457     0.09700
Cu116      Cu  0.61602129  0.38830130  0.02332296     0.44200
Cu117      Cu  0.62137531  0.44314284  0.05331509     0.42000
Cu118      Cu  0.66602901  0.39506030  0.06050723     0.43900
N119        N  0.63778778  0.36065728  0.03146332    -0.33900
N120        N  0.65597809  0.36238186  0.04581639    -0.28100
C121        C  0.66449817  0.34035216  0.04961792    -0.04200
C122        C  0.65095815  0.32427954  0.03687236     0.08000
C123        C  0.63429976  0.33788048  0.02556486     0.01800
H124        H  0.67883274  0.33623452  0.06146925     0.09400
H125        H  0.61974368  0.33159281  0.01501325     0.08500
N126        N  0.66922857  0.42969584  0.07386982    -0.35300
N127        N  0.65299336  0.44639592  0.07175835    -0.27500
C128        C  0.66042539  0.46610797  0.08287698    -0.02800
C129        C  0.68243506  0.46188752  0.09225464     0.05800
C130        C  0.68750840  0.43864565  0.08615523     0.03900
H131        H  0.65061650  0.48249313  0.08372839     0.09000
H132        H  0.70324798  0.42886955  0.09051710     0.07900
N133        N  0.51848086  0.05848591  0.95470876    -0.26500
N134        N  0.51248785  0.05776005  0.93217942    -0.34400
C135        C  0.50222650  0.03697140  0.92732426     0.01800
C136        C  0.50110875  0.02375674  0.94770947     0.07900
C137        C  0.51143796  0.03788849  0.96499905    -0.05200
H138        H  0.49561126  0.03202000  0.91012082     0.08500
H139        H  0.51401801  0.03337439  0.98340189     0.09700
Cu140      Cu  0.51744821  0.08429162  0.90797948     0.44200
Cu141      Cu  0.53687797  0.08794868  0.96837204     0.42000
Cu142      Cu  0.55084196  0.13399859  0.92186609     0.43900
N143        N  0.52576364  0.10905319  0.88289478    -0.33900
N144        N  0.53911928  0.12763195  0.88745671    -0.28100
C145        C  0.54339520  0.13920095  0.86699272    -0.04200
C146        C  0.53179288  0.12729561  0.84895484     0.08000
C147        C  0.52079359  0.10832394  0.85976133     0.01800
H148        H  0.55448520  0.15473884  0.86527491     0.09400
H149        H  0.51095858  0.09427175  0.85130437     0.08500
N150        N  0.56096217  0.13549581  0.95739005    -0.35300
N151        N  0.55660459  0.11926404  0.97390460    -0.27500
C152        C  0.56681717  0.12633224  0.99427167    -0.02800
C153        C  0.57782722  0.14804769  0.99044248     0.05800
C154        C  0.57364342  0.15322278  0.96692264     0.03900
H155        H  0.56612792  0.11647924  0.01070462     0.09000
H156        H  0.57971451  0.16867384  0.95724802     0.07900
N157        N  0.65374483  0.18627480  0.09813443    -0.26500
N158        N  0.66361938  0.20748281  0.09970740    -0.34400
C159        C  0.67514735  0.20933963  0.12018876     0.01800
C160        C  0.67281103  0.18825118  0.13238113     0.07900
C161        C  0.65936148  0.17377308  0.11780857    -0.05200
H162        H  0.68493983  0.22489607  0.12556257     0.08500
H163        H  0.65384798  0.15570966  0.12138683     0.09700
Cu164      Cu  0.66204390  0.23390948  0.07489430     0.44200
Cu165      Cu  0.63283673  0.17694743  0.06891180     0.42000
Cu166      Cu  0.62343805  0.22807692  0.02755344     0.43900
N167        N  0.65473954  0.26203941  0.05322612    -0.33900
N168        N  0.63959443  0.26047192  0.03568561    -0.28100
C169        C  0.63671515  0.28230185  0.02626128    -0.04200
C170        C  0.65093709  0.29814682  0.03851590     0.08000
C171        C  0.66211092  0.28459287  0.05544690     0.01800
H172        H  0.62468132  0.28645471  0.01205672     0.09400
H173        H  0.67376138  0.29081197  0.06919361     0.08500
N174        N  0.61007706  0.19369524  0.02290896    -0.35300
N175        N  0.61292346  0.17546145  0.03755808    -0.27500
C176        C  0.60153940  0.15641343  0.02859500    -0.02800
C177        C  0.59130392  0.16290703  0.00726988     0.05800
C178        C  0.59716825  0.18660229  0.00431539     0.03900
H179        H  0.60111910  0.13900789  0.03677238     0.09000
H180        H  0.59234346  0.19797639  0.98965189     0.07900
N181        N  0.96710033  0.51652300  0.09286946    -0.26500
N182        N  0.94595552  0.50717190  0.09040722    -0.34400
C183        C  0.94459214  0.49578142  0.06974960     0.01800
C184        C  0.96597722  0.49779149  0.05853836     0.07900
C185        C  0.97999548  0.51083715  0.07377138    -0.05200
H186        H  0.92922120  0.48632377  0.06361291     0.08500
H187        H  0.99810193  0.51595786  0.07108377     0.09700
Cu188      Cu  0.91949156  0.50961713  0.11480183     0.44200
Cu189      Cu  0.97634028  0.53658838  0.12241739     0.42000
Cu190      Cu  0.92784613  0.54566524  0.16515437     0.43900
N191        N  0.89253376  0.51795306  0.13719404    -0.33900
N192        N  0.89501188  0.53219101  0.15546826    -0.28100
C193        C  0.87364753  0.53615852  0.16481300    -0.04200
C194        C  0.85718507  0.52344824  0.15187171     0.08000
C195        C  0.86984358  0.51210478  0.13458509     0.01800
H196        H  0.87029169  0.54773703  0.17958999     0.09400
H197        H  0.86295407  0.50143567  0.12032976     0.08500
N198        N  0.96249667  0.55700051  0.17004407    -0.35300
N199        N  0.97965656  0.55451173  0.15450445    -0.27500
C200        C  0.99928220  0.56467657  0.16319478    -0.02800
C201        C  0.99436249  0.57361955  0.18534492     0.05800
C202        C  0.97094878  0.56834825  0.18912646     0.03900
H203        H  0.01602216  0.56509684  0.15423971     0.09000
H204        H  0.96067180  0.57277034  0.20451051     0.07900
N205        N  0.09709332  0.65183721  0.22908706    -0.26500
N206        N  0.10089568  0.65756911  0.25135723    -0.34400
C207        C  0.12064927  0.67037971  0.25298440     0.01800
C208        C  0.12993107  0.67312109  0.23065597     0.07900
C209        C  0.11442756  0.66136488  0.21579262    -0.05200
H210        H  0.12762114  0.67729848  0.26933963     0.08500
H211        H  0.11592414  0.65944292  0.19686993     0.09700
Cu212      Cu  0.07999948  0.64797665  0.27932560     0.44200
Cu213      Cu  0.06868526  0.63041233  0.21916377     0.42000
Cu214      Cu  0.03327558  0.60787506  0.26968662     0.43900
N215        N  0.06084172  0.63382328  0.30665313    -0.33900
N216        N  0.04374850  0.61830451  0.30342679    -0.28100
C217        C  0.03575510  0.61122717  0.32470604    -0.04200
C218        C  0.04839153  0.62311767  0.34199055     0.08000
C219        C  0.06410005  0.63730241  0.32986649     0.01800
H220        H  0.02195678  0.59826470  0.32739468     0.09400
H221        H  0.07744681  0.64873130  0.33732002     0.08500
N222        N  0.02655143  0.60050122  0.23419721    -0.35300
N223        N  0.03942194  0.60799901  0.21615106    -0.27500
C224        C  0.03020495  0.59926812  0.19603147    -0.02800
C225        C  0.01047558  0.58599024  0.20163721     0.05800
C226        C  0.00867880  0.58723217  0.22593465     0.03900
H227        H  0.03709496  0.60272874  0.17856431     0.09000
H228        H  0.99544867  0.57888457  0.23687971     0.07900
N229        N  0.02790777  0.56304486  0.47962910    -0.26500
N230        N  0.02254278  0.55937860  0.45723527    -0.34400
C231        C  0.01014838  0.53926902  0.45523948     0.01800
C232        C  0.00721477  0.52957591  0.47744014     0.07900
C233        C  0.01848117  0.54521714  0.49262655    -0.05200
H234        H  0.00305628  0.53270901  0.43878757     0.08500
H235        H  0.01964195  0.54378298  0.51163951     0.09700
Cu236      Cu  0.03035549  0.58169154  0.42964938     0.44200
Cu237      Cu  0.04760735  0.59272304  0.49026802     0.42000
Cu238      Cu  0.06343935  0.63301157  0.44025338     0.43900
N239        N  0.04016652  0.60403261  0.40275479    -0.33900
N240        N  0.05312757  0.62314034  0.40628294    -0.28100
C241        C  0.05779088  0.63328486  0.38519531    -0.04200
C242        C  0.04696400  0.61988395  0.36775554     0.08000
C243        C  0.03592662  0.60152895  0.37958289     0.01800
H244        H  0.06838311  0.64907639  0.38272704     0.09400
H245        H  0.02612937  0.58699906  0.37191445     0.08500
N246        N  0.07164467  0.63896899  0.47572065    -0.35300
N247        N  0.06670348  0.62454033  0.49362676    -0.27500
C248        C  0.07522753  0.63421365  0.51368346    -0.02800
C249        C  0.08566871  0.65582008  0.50814602     0.05800
C250        C  0.08297301  0.65819797  0.48399060     0.03900
H251        H  0.07343338  0.62638987  0.53107283     0.09000
H252        H  0.08895114  0.67285916  0.47311339     0.07900
N253        N  0.15583890  0.71147479  0.61197838    -0.26500
N254        N  0.16538755  0.73280067  0.60979066    -0.34400
C255        C  0.17684215  0.73846233  0.62959455     0.01800
C256        C  0.17494990  0.71983715  0.64520807     0.07900
C257        C  0.16158940  0.70276002  0.63355239    -0.05200
H258        H  0.18576048  0.75519379  0.63248786     0.08500
H259        H  0.15596326  0.68571766  0.64044060     0.09700
Cu260      Cu  0.16164286  0.75532533  0.58164793     0.44200
Cu261      Cu  0.13460907  0.69728931  0.58498398     0.42000
Cu262      Cu  0.11771276  0.74376355  0.54072870     0.43900
N263        N  0.14664757  0.78202745  0.56241782    -0.33900
N264        N  0.12918602  0.77824991  0.54761600    -0.28100
C265        C  0.12085989  0.79943022  0.54030774    -0.04200
C266        C  0.13395476  0.81719200  0.55110217     0.08000
C267        C  0.15015849  0.80544466  0.56492260     0.01800
H268        H  0.10592950  0.80172781  0.52872123     0.09400
H269        H  0.16256340  0.81326446  0.57710562     0.08500
N270        N  0.11003797  0.70758650  0.53805750    -0.35300
N271        N  0.11527615  0.69093685  0.55385207    -0.27500
C272        C  0.10699914  0.66987556  0.54598548    -0.02800
C273        C  0.09644259  0.67345696  0.52416260     0.05800
C274        C  0.09880751  0.69750695  0.51976634     0.03900
H275        H  0.10904519  0.65311239  0.55517341     0.09000
H276        H  0.09265438  0.70709641  0.50436798     0.07900
N277        N  0.59236217  0.14561194  0.71277872    -0.26500
N278        N  0.59598583  0.15170408  0.73498213    -0.34400
C279        C  0.61694076  0.16229934  0.73699017     0.01800
C280        C  0.62717477  0.16323888  0.71496633     0.07900
C281        C  0.61102647  0.15274442  0.69988726    -0.05200
H282        H  0.62381594  0.16952026  0.75325849     0.08500
H283        H  0.61271923  0.15048056  0.68102131     0.09700
Cu284      Cu  0.57258516  0.14693629  0.76205750     0.44200
Cu285      Cu  0.56182424  0.12795746  0.70211050     0.42000
Cu286      Cu  0.51969119  0.11625874  0.75071527     0.43900
N287        N  0.54949292  0.13835266  0.78846803    -0.33900
N288        N  0.53002022  0.12621022  0.78467809    -0.28100
C289        C  0.52000600  0.12129875  0.80567067    -0.04200
C290        C  0.53380412  0.13116291  0.82333105     0.08000
C291        C  0.55230124  0.14187120  0.81173255     0.01800
H292        H  0.50422393  0.11082489  0.80795793     0.09400
H293        H  0.56738633  0.15041576  0.81964212     0.08500
N294        N  0.51432928  0.10706548  0.71539416    -0.35300
N295        N  0.52956639  0.11057711  0.69806937    -0.27500
C296        C  0.52057843  0.10156593  0.67795880    -0.02800
C297        C  0.49857935  0.09225905  0.68278444     0.05800
C298        C  0.49519915  0.09614696  0.70662640     0.03900
H299        H  0.52927485  0.10208221  0.66100839     0.09000
H300        H  0.48004327  0.09107185  0.71697508     0.07900
N301        N  0.44962073  0.02319919  0.57518413    -0.26500
N302        N  0.42740995  0.01671255  0.57302940    -0.34400
C303        C  0.42414126  0.00608952  0.55219979     0.01800
C304        C  0.44523630  0.00540694  0.54052137     0.07900
C305        C  0.46122749  0.01631924  0.55558095    -0.05200
H306        H  0.40748777  0.99922740  0.54602963     0.08500
H307        H  0.47967514  0.01945056  0.55234994     0.09700
Cu308      Cu  0.40145492  0.02239987  0.59742337     0.44200
Cu309      Cu  0.46165482  0.04204179  0.60475499     0.42000
Cu310      Cu  0.41367016  0.05904633  0.64576710     0.43900
N311        N  0.37554392  0.03370092  0.61977742    -0.33900
N312        N  0.37971909  0.04824329  0.63748121    -0.28100
C313        C  0.35915391  0.05403459  0.64756186    -0.04200
C314        C  0.34135522  0.04221140  0.63569299     0.08000
C315        C  0.35240596  0.02946648  0.61823117     0.01800
H316        H  0.35728655  0.06603723  0.66227491     0.09400
H317        H  0.34419734  0.01868854  0.60477882     0.08500
N318        N  0.44906292  0.06685082  0.65072392    -0.35300
N319        N  0.46629720  0.06137675  0.63607069    -0.27500
C320        C  0.48662595  0.06985959  0.64499188    -0.02800
C321        C  0.48194195  0.08084717  0.66631105     0.05800
C322        C  0.45801338  0.07850984  0.66934621     0.03900
H323        H  0.50360579  0.06782369  0.63677175     0.09000
H324        H  0.44774472  0.08502545  0.68396898     0.07900
N325        N  0.06987877  0.95356246  0.53872163    -0.26500
N326        N  0.06503286  0.93112550  0.53402021    -0.34400
C327        C  0.04490440  0.92983447  0.52184778     0.01800
C328        C  0.03658723  0.95261091  0.51847733     0.07900
C329        C  0.05293866  0.96728595  0.52922578    -0.05200
H330        H  0.03755807  0.91353417  0.51497926     0.08500
H331        H  0.05273973  0.98648795  0.52975184     0.09700
Cu332      Cu  0.08672452  0.90316140  0.54189251     0.44200
Cu333      Cu  0.09997327  0.96358271  0.55711349     0.42000
Cu334      Cu  0.14145428  0.91519086  0.57053250     0.43900
N335        N  0.11121605  0.87731451  0.54843870    -0.33900
N336        N  0.13134566  0.88134791  0.55930505    -0.28100
C337        C  0.14286652  0.86060329  0.56148805    -0.04200
C338        C  0.12933317  0.84288134  0.55125786     0.08000
C339        C  0.10942683  0.85415118  0.54316737     0.01800
H340        H  0.15973801  0.85855307  0.57000796     0.09400
H341        H  0.09445951  0.84608049  0.53457518     0.08500
N342        N  0.14669926  0.95078530  0.57961504    -0.35300
N343        N  0.13151356  0.96802731  0.57525588    -0.27500
C344        C  0.14001388  0.98851275  0.58402985    -0.02800
C345        C  0.16166530  0.98407737  0.59414078     0.05800
C346        C  0.16539210  0.96001560  0.59094508     0.03900
H347        H  0.13120628  0.00546649  0.58281997     0.09000
H348        H  0.18045915  0.94988039  0.59670965     0.07900
N349        N  0.20364987  0.09768961  0.65788250    -0.26500
N350        N  0.22573846  0.10327502  0.66241574    -0.34400
C351        C  0.22672372  0.12479395  0.67236420     0.01800
C352        C  0.20417024  0.13335298  0.67446447     0.07900
C353        C  0.18987825  0.11560663  0.66536283    -0.05200
H354        H  0.24275267  0.13329242  0.67817143     0.08500
H355        H  0.17094643  0.11580668  0.66409336     0.09700
Cu356      Cu  0.25415234  0.08180878  0.65600751     0.44200
Cu357      Cu  0.19425537  0.06585143  0.64131110     0.42000
Cu358      Cu  0.24415120  0.02663943  0.62766423     0.43900
N359        N  0.28107531  0.05947355  0.64676422    -0.33900
N360        N  0.27755782  0.03920241  0.63568296    -0.28100
C361        C  0.29849355  0.02957626  0.63054217    -0.04200
C362        C  0.31591100  0.04444220  0.63911091     0.08000
C363        C  0.30423606  0.06318970  0.64933505     0.01800
H364        H  0.30085499  0.01315311  0.62103307     0.09400
H365        H  0.31196145  0.07883000  0.65722143     0.08500
N366        N  0.20931998  0.01894448  0.61967256    -0.35300
N367        N  0.19139044  0.03320164  0.62389973    -0.27500
C368        C  0.17169348  0.02305131  0.61536918    -0.02800
C369        C  0.17747363  0.00131083  0.60566009     0.05800
C370        C  0.20143058  0.99929004  0.60877175     0.03900
H371        H  0.15439902  0.03082138  0.61637315     0.09000
H372        H  0.21244176  0.98479890  0.60309444     0.07900
C373        C  0.98279010  0.94872529  0.47841523     0.81000
N374        N  0.96412615  0.93388667  0.47566045    -0.77300
C375        C  0.94980792  0.93619853  0.45657721     0.83400
N376        N  0.95460313  0.95301444  0.44003617    -0.77200
C377        C  0.97332594  0.96773299  0.44249461     0.83500
N378        N  0.98747709  0.96541175  0.46162386    -0.79000
N379        N  0.71824708  0.58908126  0.77733923    -0.26500
N380        N  0.69628100  0.59160639  0.77020627    -0.34400
C381        C  0.69441584  0.61151716  0.75728986     0.01800
C382        C  0.71622728  0.62211277  0.75589689     0.07900
C383        C  0.73107315  0.60732605  0.76859396    -0.05200
H384        H  0.67831408  0.61766313  0.74921236     0.08500
H385        H  0.74964493  0.60987536  0.77163507     0.09700
Cu386      Cu  0.66896013  0.56855725  0.77741895     0.44200
Cu387      Cu  0.72892194  0.56108949  0.79924427     0.42000
Cu388      Cu  0.68058040  0.52062982  0.81576858     0.43900
N389        N  0.64286572  0.54568365  0.78862267    -0.33900
N390        N  0.64706983  0.52802980  0.80344039    -0.28100
C391        C  0.62666325  0.51729251  0.80889774    -0.04200
C392        C  0.60880589  0.52869558  0.79673631     0.08000
C393        C  0.61973418  0.54657894  0.78399592     0.01800
H394        H  0.62492291  0.50257706  0.82113631     0.09400
H395        H  0.61142827  0.55984655  0.77294384     0.08500
N396        N  0.71528596  0.51638795  0.82610311    -0.35300
N397        N  0.73273998  0.53104167  0.82079550    -0.27500
C398        C  0.75262253  0.52268235  0.83071890    -0.02800
C399        C  0.74738985  0.50168432  0.84247960     0.05800
C400        C  0.72363529  0.49826247  0.83911697     0.03900
H401        H  0.76971013  0.53089389  0.82891025     0.09000
H402        H  0.71312132  0.48360958  0.84563695     0.07900
N403        N  0.85608963  0.45483404  0.90915693    -0.26500
N404        N  0.86127134  0.43221140  0.91256847    -0.34400
C405        C  0.88152890  0.43054556  0.92450481     0.01800
C406        C  0.88957912  0.45323349  0.92907548     0.07900
C407        C  0.87293009  0.46824785  0.91927957    -0.05200
H408        H  0.88930429  0.41396096  0.93016889     0.08500
H409        H  0.87299705  0.48745701  0.91959694     0.09700
Cu410      Cu  0.84019756  0.40418636  0.90279300     0.44200
Cu411      Cu  0.82592958  0.46555464  0.89115738     0.42000
Cu412      Cu  0.78498445  0.41653460  0.87661656     0.43900
N413        N  0.81673386  0.37785254  0.89391156    -0.33900
N414        N  0.79628237  0.38209265  0.88378905    -0.28100
C415        C  0.78566117  0.36118170  0.87927277    -0.04200
C416        C  0.80012132  0.34307797  0.88729426     0.08000
C417        C  0.81960552  0.35432270  0.89648955     0.01800
H418        H  0.76878264  0.35929913  0.87072256     0.09400
H419        H  0.83505612  0.34603200  0.90392098     0.08500
N420        N  0.77926117  0.45228159  0.86890589    -0.35300
N421        N  0.79416376  0.46982718  0.87326649    -0.27500
C422        C  0.78522311  0.49021522  0.86452240    -0.02800
C423        C  0.76358311  0.48527176  0.85455874     0.05800
C424        C  0.76036143  0.46113208  0.85774594     0.03900
H425        H  0.79374808  0.50737309  0.86554596     0.09000
H426        H  0.74559910  0.45060597  0.85182084     0.07900
N427        N  0.33704609  0.64050567  0.72992522    -0.26500
N428        N  0.33280473  0.64661891  0.70777378    -0.34400
C429        C  0.31231113  0.65804727  0.70639100     0.01800
C430        C  0.30298145  0.65957459  0.72875279     0.07900
C431        C  0.31923076  0.64852560  0.74342848    -0.05200
H432        H  0.30502209  0.66527087  0.69023967     0.08500
H433        H  0.31801943  0.64619664  0.76235158     0.09700
Cu434      Cu  0.35473318  0.64076791  0.67978255     0.44200
Cu435      Cu  0.36703957  0.62099544  0.73916045     0.42000
Cu436      Cu  0.40718242  0.60926476  0.68846984     0.43900
N437        N  0.37754705  0.63453087  0.65261187    -0.33900
N438        N  0.39714911  0.62243113  0.65539350    -0.28100
C439        C  0.40755603  0.62030051  0.63416985    -0.04200
C440        C  0.39378802  0.63184169  0.61743641     0.08000
C441        C  0.37494901  0.64065998  0.62982006     0.01800
H442        H  0.42369483  0.61076798  0.63108946     0.09400
H443        H  0.36003481  0.65016419  0.62272592     0.08500
N444        N  0.41218925  0.59701217  0.72305225    -0.35300
N445        N  0.39781335  0.60062874  0.74104623    -0.27500
C446        C  0.40647782  0.58939927  0.76028750    -0.02800
C447        C  0.42735024  0.57848926  0.75419972     0.05800
C448        C  0.43039272  0.58377213  0.73052173     0.03900
H449        H  0.39835864  0.58948149  0.77752845     0.09000
H450        H  0.44472810  0.57817350  0.71939865     0.07900
N451        N  0.47420604  0.49944376  0.85675005    -0.26500
N452        N  0.49632241  0.49285520  0.85920791    -0.34400
C453        C  0.49845177  0.47877907  0.87824884     0.01800
C454        C  0.47663817  0.47606203  0.88849027     0.07900
C455        C  0.46155984  0.48925543  0.87429062    -0.05200
H456        H  0.51475155  0.47078590  0.88394202     0.08500
H457        H  0.44286781  0.49141823  0.87665481     0.09700
Cu458      Cu  0.52333201  0.50227320  0.83691781     0.44200
Cu459      Cu  0.46329818  0.52206486  0.82915479     0.42000
Cu460      Cu  0.51071098  0.53752860  0.78684794     0.43900
N461        N  0.54921945  0.51460985  0.81468215    -0.33900
N462        N  0.54481793  0.52814726  0.79611199    -0.28100
C463        C  0.56534256  0.53472393  0.78624678    -0.04200
C464        C  0.58340870  0.52460376  0.79924750     0.08000
C465        C  0.57250075  0.51193522  0.81708065     0.01800
H466        H  0.56699541  0.54640036  0.77110750     0.09400
H467        H  0.58084930  0.50227251  0.83133717     0.08500
N468        N  0.47573904  0.54755265  0.78318953    -0.35300
N469        N  0.45878370  0.54298143  0.79855226    -0.27500
C470        C  0.43887873  0.55342200  0.79079009    -0.02800
C471        C  0.44350965  0.56472762  0.76945781     0.05800
C472        C  0.46698910  0.56051819  0.76523070     0.03900
H473        H  0.42219586  0.55255689  0.79982291     0.09000
H474        H  0.47716755  0.56684975  0.75036265     0.07900
N475        N  0.41216179  0.57750881  0.48119996    -0.26500
N476        N  0.42237310  0.57677242  0.50215977    -0.34400
C477        C  0.43365798  0.55610153  0.50484123     0.01800
C478        C  0.43079686  0.54301849  0.48460803     0.07900
C479        C  0.41711428  0.55710246  0.46978144    -0.05200
H480        H  0.44297255  0.55079639  0.52066198     0.08500
H481        H  0.41067127  0.55258584  0.45240488     0.09700
Cu482      Cu  0.41945226  0.60222619  0.52778789     0.44200
Cu483      Cu  0.39093072  0.60618572  0.47087407     0.42000
Cu484      Cu  0.37650661  0.64661301  0.52028336     0.43900
N485        N  0.40667817  0.62128417  0.55568433    -0.33900
N486        N  0.38992286  0.63724821  0.55335628    -0.28100
C487        C  0.38336958  0.64435453  0.57502630    -0.04200
C488        C  0.39684737  0.63229109  0.59162594     0.08000
C489        C  0.41145591  0.61788680  0.57867606     0.01800
H490        H  0.36938476  0.65679718  0.57845773     0.09400
H491        H  0.42368358  0.60486021  0.58544655     0.08500
N492        N  0.36603667  0.65173473  0.48526280    -0.35300
N493        N  0.37060953  0.63712032  0.46760453    -0.27500
C494        C  0.36057869  0.64581472  0.44776826    -0.02800
C495        C  0.34947685  0.66697126  0.45313634     0.05800
C496        C  0.35339354  0.67016254  0.47700706     0.03900
H497        H  0.36164464  0.63755921  0.43061202     0.09000
H498        H  0.34726565  0.68472831  0.48770551     0.07900
N499        N  0.27646035  0.71026700  0.34587621    -0.26500
N500        N  0.27062065  0.73263550  0.34200362    -0.34400
C501        C  0.25882833  0.73445371  0.32163474     0.01800
C502        C  0.25679603  0.71210991  0.31197931     0.07900
C503        C  0.26794878  0.69703995  0.32792753    -0.05200
H504        H  0.25174477  0.75088307  0.31470487     0.08500
H505        H  0.26989509  0.67800124  0.32647061     0.09700
Cu506      Cu  0.27773347  0.76018462  0.36431791     0.44200
Cu507      Cu  0.29605448  0.70046811  0.37578601     0.42000
Cu508      Cu  0.31092901  0.75085154  0.41608875     0.43900
N509        N  0.28748548  0.78750950  0.38587456    -0.33900
N510        N  0.30046651  0.78462211  0.40497366    -0.28100
C511        C  0.30547464  0.80621166  0.41388857    -0.04200
C512        C  0.29480596  0.82324547  0.39969746     0.08000
C513        C  0.28354238  0.81069534  0.38219583     0.01800
H514        H  0.31642006  0.80929763  0.42918823     0.09400
H515        H  0.27409199  0.81787873  0.36721291     0.08500
N516        N  0.32039858  0.71540267  0.42154607    -0.35300
N517        N  0.31583126  0.69757739  0.40701937    -0.27500
C518        C  0.32565662  0.67763758  0.41587205    -0.02800
C519        C  0.33657285  0.68308042  0.43704225     0.05800
C520        C  0.33278849  0.70711816  0.44007837     0.03900
H521        H  0.32464404  0.66036783  0.40765702     0.09000
H522        H  0.33898121  0.71794789  0.45453197     0.07900
N523        N  0.80224072  0.27843925  0.88760851    -0.26500
N524        N  0.78677264  0.28228389  0.87066779    -0.34400
C525        C  0.78283195  0.30574085  0.86861219     0.01800
C526        C  0.79674351  0.31728956  0.88492762     0.07900
C527        C  0.80887823  0.29946699  0.89664769    -0.05200
H528        H  0.77149852  0.31380191  0.85551573     0.08500
H529        H  0.82181158  0.30163893  0.91046640     0.09700
Cu530      Cu  0.77394358  0.25532237  0.84993768     0.44200
Cu531      Cu  0.81363909  0.24441724  0.89638872     0.42000
Cu532      Cu  0.79514030  0.19463451  0.85856016     0.43900
N533        N  0.76642716  0.22753944  0.82770008    -0.33900
N534        N  0.77345373  0.20532523  0.83046826    -0.28100
C535        C  0.76471784  0.19232519  0.81247904    -0.04200
C536        C  0.75211609  0.20730706  0.79764102     0.08000
C537        C  0.75355430  0.22939469  0.80798062     0.01800
H538        H  0.76761178  0.17350411  0.81016770     0.09400
H539        H  0.74558679  0.24571142  0.80182662     0.08500
N540        N  0.81677387  0.19103765  0.88842216    -0.35300
N541        N  0.82284961  0.20906200  0.90208773    -0.27500
C542        C  0.83586377  0.20087453  0.92018682    -0.02800
C543        C  0.83842368  0.17659282  0.91784909     0.05800
C544        C  0.82615899  0.17093120  0.89745181     0.03900
H545        H  0.84298933  0.21187731  0.93406872     0.09000
H546        H  0.82377610  0.15342648  0.89003313     0.07900
N547        N  0.90166699  0.06556128  0.96858727    -0.26500
N548        N  0.91028140  0.06461386  0.99023749    -0.34400
C549        C  0.91947867  0.04315630  0.99437414     0.01800
C550        C  0.91707755  0.02975416  0.97433864     0.07900
C551        C  0.90579642  0.04446239  0.95808787    -0.05200
H552        H  0.92782246  0.03787641  0.01074373     0.08500
H553        H  0.90079656  0.04009775  0.94020143     0.09700
Cu554      Cu  0.90994277  0.09180254  0.01399592     0.44200
Cu555      Cu  0.88450448  0.09615709  0.95609496     0.42000
Cu556      Cu  0.87767453  0.14316950  0.00245932     0.43900
N557        N  0.90303538  0.11590407  0.03985786    -0.33900
N558        N  0.88999608  0.13489552  0.03630222    -0.28100
C559        C  0.88614096  0.14531593  0.05732370    -0.04200
C560        C  0.89765549  0.13220893  0.07467028     0.08000
C561        C  0.90819609  0.11377603  0.06286225     0.01800
H562        H  0.87522664  0.16076316  0.05989230     0.09400
H563        H  0.91761657  0.09898407  0.07056518     0.08500
N564        N  0.86678298  0.14608526  0.96724939    -0.35300
N565        N  0.86851505  0.12941949  0.95088469    -0.27500
C566        C  0.85863714  0.13758976  0.93073287    -0.02800
C567        C  0.85062348  0.16047533  0.93451355     0.05800
C568        C  0.85618391  0.16522600  0.95778286     0.03900
H569        H  0.85756986  0.12767883  0.91446439     0.09000
H570        H  0.85239285  0.18133453  0.96734684     0.07900
N571        N  0.22015152  0.09066221  0.26984370    -0.26500
N572        N  0.19847338  0.09326075  0.26193406    -0.34400
C573        C  0.19666403  0.11410776  0.25053437     0.01800
C574        C  0.21826986  0.12524039  0.25100648     0.07900
C575        C  0.23288770  0.10979452  0.26316328    -0.05200
H576        H  0.18081436  0.12046117  0.24211764     0.08500
H577        H  0.25128957  0.11238941  0.26708934     0.09700
Cu578      Cu  0.17175341  0.06889285  0.26640507     0.44200
Cu579      Cu  0.23055983  0.06118230  0.28973491     0.42000
Cu580      Cu  0.18242614  0.02003705  0.30493732     0.43900
N581        N  0.14535930  0.04650498  0.27769035    -0.33900
N582        N  0.14894190  0.02897401  0.29284875    -0.28100
C583        C  0.12804249  0.01947850  0.29880248    -0.04200
C584        C  0.11062052  0.03144083  0.28646694     0.08000
C585        C  0.12227063  0.04839967  0.27320824     0.01800
H586        H  0.12566416  0.00522350  0.31146564     0.09400
H587        H  0.11447699  0.06198819  0.26215804     0.08500
N588        N  0.21751244  0.01501717  0.31443006    -0.35300
N589        N  0.23476831  0.03004391  0.30948823    -0.27500
C590        C  0.25482801  0.02171604  0.31902740    -0.02800
C591        C  0.25004345  0.00033079  0.33022560     0.05800
C592        C  0.22626398  0.99661598  0.32687038     0.03900
H593        H  0.27168558  0.03049560  0.31773012     0.09000
H594        H  0.21594996  0.98182326  0.33340025     0.07900
N595        N  0.35554005  0.96177849  0.40757400    -0.26500
N596        N  0.35836693  0.94026204  0.41659392    -0.34400
C597        C  0.37867290  0.93929427  0.42845387     0.01800
C598        C  0.38934113  0.96127818  0.42715495     0.07900
C599        C  0.37409821  0.97530025  0.41400693    -0.05200
H600        H  0.38509820  0.92365400  0.43753869     0.08500
H601        H  0.37658650  0.99371128  0.40902636     0.09700
Cu602      Cu  0.33539081  0.91232704  0.41300915     0.44200
Cu603      Cu  0.32664054  0.97037705  0.38621998     0.42000
Cu604      Cu  0.28645971  0.91979141  0.37551171     0.43900
N605        N  0.31315674  0.88473408  0.40507759    -0.33900
N606        N  0.29515532  0.88723111  0.39061339    -0.28100
C607        C  0.28517370  0.86583370  0.38730068    -0.04200
C608        C  0.29746366  0.84920134  0.40051294     0.08000
C609        C  0.31506016  0.86182889  0.41160275     0.01800
H610        H  0.27045662  0.86254530  0.37568165     0.09400
H611        H  0.32890483  0.85477297  0.42265337     0.08500
N612        N  0.28160172  0.95396408  0.36223487    -0.35300
N613        N  0.29610848  0.97208803  0.36550902    -0.27500
C614        C  0.28744687  0.99126319  0.35410650    -0.02800
C615        C  0.26642342  0.98495561  0.34348836     0.05800
C616        C  0.26329932  0.96123058  0.34905759     0.03900
H617        H  0.29554956  0.00866321  0.35405892     0.09000
H618        H  0.24875932  0.95000081  0.34389499     0.07900
N619        N  0.83640856  0.13701184  0.21134519    -0.26500
N620        N  0.83298710  0.14611530  0.19005268    -0.34400
C621        C  0.81171120  0.15611108  0.18904676     0.01800
C622        C  0.80113713  0.15345027  0.21079201     0.07900
C623        C  0.81735371  0.14151504  0.22467087    -0.05200
H624        H  0.80467966  0.16510369  0.17367361     0.08500
H625        H  0.81533084  0.13622941  0.24294235     0.09700
Cu626      Cu  0.85676270  0.14535509  0.16276267     0.44200
Cu627      Cu  0.86676649  0.11839816  0.22040648     0.42000
Cu628      Cu  0.90779982  0.11039777  0.17103931     0.43900
N629        N  0.87978392  0.13857557  0.13572574    -0.33900
N630        N  0.89841899  0.12497902  0.13849547    -0.28100
C631        C  0.90845978  0.12175036  0.11729210    -0.04200
C632        C  0.89558392  0.13412491  0.10048168     0.08000
C633        C  0.87756267  0.14463311  0.11283659     0.01800
H634        H  0.92353401  0.11057250  0.11422664     0.09400
H635        H  0.86309397  0.15470111  0.10557361     0.08500
N636        N  0.91317194  0.09723270  0.20506612    -0.35300
N637        N  0.89831487  0.09975467  0.22281146    -0.27500
C638        C  0.90723133  0.08886504  0.24206177    -0.02800
C639        C  0.92877472  0.07925432  0.23620695     0.05800
C640        C  0.93196346  0.08493496  0.21265525     0.03900
H641        H  0.89882673  0.08835272  0.25916151     0.09000
H642        H  0.94685643  0.08044336  0.20177350     0.07900
N643        N  0.04661985  0.03394534  0.28552811    -0.26500
N644        N  0.05051590  0.02438088  0.30653640    -0.34400
C645        C  0.07366365  0.02109824  0.30952228     0.01800
C646        C  0.08506029  0.02923846  0.28958404     0.07900
C647        C  0.06742311  0.03737884  0.27472293    -0.05200
H648        H  0.08164712  0.01417098  0.32546080     0.08500
H649        H  0.06957651  0.04545785  0.25748932     0.09700
Cu650      Cu  0.02469253  0.01774187  0.33118660     0.44200
Cu651      Cu  0.01296364  0.04250114  0.27340473     0.42000
Cu652      Cu  0.96539918  0.03272996  0.31583440     0.43900
N653        N  0.99663373  0.01232189  0.35353820    -0.33900
N654        N  0.97470734  0.01724722  0.34780412    -0.28100
C655        C  0.96056677  0.01021108  0.36551729    -0.04200
C656        C  0.97433397  0.00075977  0.38333299     0.08000
C657        C  0.99712590  0.00234507  0.37511978     0.01800
H658        H  0.94164618  0.01159036  0.36531196     0.09400
H659        H  0.01284316  0.99589772  0.38370662     0.08500
N660        N  0.96090469  0.04857290  0.28297212    -0.35300
N661        N  0.97789666  0.05166216  0.26734760    -0.27500
C662        C  0.96892237  0.06247090  0.24808525    -0.02800
C663        C  0.94528878  0.06660682  0.25190329     0.05800
C664        C  0.94084073  0.05758056  0.27419789     0.03900
H665        H  0.97902047  0.06756806  0.23271382     0.09000
H666        H  0.92426725  0.05766152  0.28346316     0.07900
N667        N  0.64813125  0.69907012  0.33040700    -0.26500
N668        N  0.65885907  0.67836225  0.32905037    -0.34400
C669        C  0.67042101  0.67695879  0.30856707     0.01800
C670        C  0.66708936  0.69786560  0.29623259     0.07900
C671        C  0.65308112  0.71170493  0.31067722    -0.05200
H672        H  0.68058459  0.66175104  0.30313537     0.08500
H673        H  0.64657214  0.72934806  0.30689438     0.09700
Cu674      Cu  0.65712754  0.65199436  0.35404182     0.44200
Cu675      Cu  0.62677582  0.70751604  0.35918142     0.42000
Cu676      Cu  0.61611413  0.65739912  0.40075680     0.43900
N677        N  0.64707806  0.62357331  0.37433379    -0.33900
N678        N  0.63122000  0.62499360  0.39121228    -0.28100
C679        C  0.62644378  0.60285063  0.39900940    -0.04200
C680        C  0.64011581  0.58694977  0.38641313     0.08000
C681        C  0.65299659  0.60077931  0.37099714     0.01800
H682        H  0.61337959  0.59857622  0.41220137     0.09400
H683        H  0.66469799  0.59467737  0.35731646     0.08500
N684        N  0.60358308  0.69202265  0.40532322    -0.35300
N685        N  0.60695035  0.70976012  0.39020118    -0.27500
C686        C  0.59625811  0.72931773  0.39850769    -0.02800
C687        C  0.58590848  0.72380328  0.41995335     0.05800
C688        C  0.59096426  0.70003365  0.42373111     0.03900
H689        H  0.59647145  0.74646972  0.38980606     0.09000
H690        H  0.58579706  0.68929984  0.43875426     0.07900
N691        N  0.52430448  0.83784539  0.46159284    -0.26500
N692        N  0.51944765  0.84305668  0.48375086    -0.34400
C693        C  0.51128006  0.86527729  0.48497841     0.01800
C694        C  0.51067142  0.87474800  0.46247340     0.07900
C695        C  0.51878410  0.85678347  0.44793613    -0.05200
H696        H  0.50551220  0.87362891  0.50109996     0.08500
H697        H  0.52066064  0.85749088  0.42894972     0.09700
Cu698      Cu  0.52283168  0.82008454  0.51176407     0.44200
Cu699      Cu  0.53858064  0.80494628  0.45244783     0.42000
Cu700      Cu  0.54934207  0.76382234  0.50298454     0.43900
N701        N  0.52917061  0.79695160  0.53909767    -0.33900
N702        N  0.53960799  0.77625461  0.53632324    -0.28100
C703        C  0.54285555  0.76635049  0.55779034    -0.04200
C704        C  0.53371390  0.78153128  0.57466406     0.08000
C705        C  0.52517260  0.80070545  0.56212867     0.01800
H706        H  0.55155882  0.74957884  0.56092003     0.09400
H707        H  0.51753788  0.81670265  0.56923942     0.08500
N708        N  0.55829986  0.75688759  0.46783306    -0.35300
N709        N  0.55483912  0.77172683  0.44991632    -0.27500
C710        C  0.56384318  0.76209394  0.43019412    -0.02800
C711        C  0.57319694  0.74010392  0.43581354     0.05800
C712        C  0.56928724  0.73736758  0.45979845     0.03900
H713        H  0.56369036  0.77056325  0.41300803     0.09000
H714        H  0.57462771  0.72254533  0.47076604     0.07900
N715        N  0.57621558  0.45039106  0.38636312    -0.26500
N716        N  0.57429311  0.47182267  0.39548330    -0.34400
C717        C  0.55380245  0.47377050  0.40669719     0.01800
C718        C  0.54198552  0.45247680  0.40493744     0.07900
C719        C  0.55679101  0.43779080  0.39216098    -0.05200
H720        H  0.54825125  0.48944389  0.41610782     0.08500
H721        H  0.55364063  0.41948196  0.38738402     0.09700
Cu722      Cu  0.59923238  0.49788704  0.39380216     0.44200
Cu723      Cu  0.60595301  0.44115382  0.36678163     0.42000
Cu724      Cu  0.65001235  0.49066374  0.35987846     0.43900
N725        N  0.62225328  0.52519214  0.38831751    -0.33900
N726        N  0.64109228  0.52322461  0.37500370    -0.28100
C727        C  0.65120803  0.54482913  0.37306306    -0.04200
C728        C  0.63801691  0.56088683  0.38600993     0.08000
C729        C  0.61986683  0.54772701  0.39544310     0.01800
H730        H  0.66657647  0.54868709  0.36253149     0.09400
H731        H  0.60527782  0.55421993  0.40571274     0.08500
N732        N  0.65404838  0.45591472  0.34753456    -0.35300
N733        N  0.63835302  0.43856209  0.34947360    -0.27500
C734        C  0.64709924  0.41885323  0.33938337    -0.02800
C735        C  0.66936371  0.42388974  0.33097008     0.05800
C736        C  0.67317669  0.44749479  0.33649138     0.03900
H737        H  0.63813533  0.40190261  0.33879515     0.09000
H738        H  0.68878272  0.45783751  0.33280474     0.07900
N739        N  0.71668163  0.31021816  0.27247776    -0.26500
N740        N  0.73894034  0.30383015  0.27159616    -0.34400
C741        C  0.74062934  0.28245994  0.26143182     0.01800
C742        C  0.71834315  0.27485816  0.25536783     0.07900
C743        C  0.70356120  0.29298748  0.26247487    -0.05200
H744        H  0.75706466  0.27364126  0.25789414     0.08500
H745        H  0.68471766  0.29367920  0.26034136     0.09700
Cu746      Cu  0.76665268  0.32484864  0.28200501     0.44200
Cu747      Cu  0.70618948  0.34253772  0.28702519     0.42000
Cu748      Cu  0.75459315  0.38332288  0.30264413     0.43900
N749        N  0.79271166  0.34903343  0.28959425    -0.33900
N750        N  0.78854887  0.37059324  0.29762376    -0.28100
C751        C  0.80922279  0.38148651  0.30171882    -0.04200
C752        C  0.82708932  0.36607484  0.29556866     0.08000
C753        C  0.81597350  0.34571550  0.28793275     0.01800
H754        H  0.81111313  0.39924520  0.30867305     0.09400
H755        H  0.82415545  0.32943046  0.28220268     0.08500
N756        N  0.71909568  0.39043841  0.30807337    -0.35300
N757        N  0.70172392  0.37561201  0.30304678    -0.27500
C758        C  0.68135302  0.38530838  0.31016926    -0.02800
C759        C  0.68607311  0.40734137  0.31987557     0.05800
C760        C  0.71014911  0.41001266  0.31816635     0.03900
H761        H  0.66435631  0.37689251  0.30845991     0.09000
H762        H  0.72052121  0.42482067  0.32443118     0.07900
N763        N  0.95981748  0.38889425  0.35988883    -0.26500
N764        N  0.93799137  0.39656989  0.36155573    -0.34400
C765        C  0.93527649  0.40812125  0.38198935     0.01800
C766        C  0.95643391  0.40796635  0.39389448     0.07900
C767        C  0.97170248  0.39579392  0.37930938    -0.05200
H768        H  0.91913259  0.41648903  0.38744192     0.08500
H769        H  0.99007058  0.39227130  0.38255379     0.09700
Cu770      Cu  0.91223210  0.39177831  0.33651302     0.44200
Cu771      Cu  0.97187545  0.36967467  0.33085474     0.42000
Cu772      Cu  0.92498409  0.35373005  0.28893870     0.43900
N773        N  0.88660125  0.37952437  0.31405259    -0.33900
N774        N  0.89095447  0.36430757  0.29698472    -0.28100
C775        C  0.87044563  0.35758885  0.28721718    -0.04200
C776        C  0.85249190  0.36954486  0.29852751     0.08000
C777        C  0.86339224  0.38333923  0.31537485     0.01800
H778        H  0.86871050  0.34481807  0.27312348     0.09400
H779        H  0.85502084  0.39435008  0.32846192     0.08500
N780        N  0.96056222  0.34725184  0.28363913    -0.35300
N781        N  0.97755329  0.35241281  0.29875507    -0.27500
C782        C  0.99820790  0.34538478  0.28953783    -0.02800
C783        C  0.99397801  0.33563725  0.26751790     0.05800
C784        C  0.96997215  0.33719487  0.26440788     0.03900
H785        H  0.01506637  0.34757787  0.29805364     0.09000
H786        H  0.95997252  0.33126455  0.24929385     0.07900
N787        N  0.10312193  0.27093729  0.21851081    -0.26500
N788        N  0.10382037  0.26152050  0.19721066    -0.34400
C789        C  0.12428069  0.25037904  0.19413510     0.01800
C790        C  0.13731782  0.25252299  0.21452151     0.07900
C791        C  0.12330517  0.26543888  0.22982058    -0.05200
H792        H  0.12901481  0.24086207  0.17831535     0.08500
H793        H  0.12752081  0.27053627  0.24771455     0.09700
Cu794      Cu  0.07747468  0.26308230  0.17263691     0.44200
Cu795      Cu  0.07412441  0.29068949  0.22993440     0.42000
Cu796      Cu  0.02878550  0.29923235  0.18304868     0.43900
N797        N  0.05364830  0.27071185  0.14665561    -0.33900
N798        N  0.03574002  0.28507568  0.14993732    -0.28100
C799        C  0.02520651  0.28899162  0.12898168    -0.04200
C800        C  0.03708086  0.27618822  0.11190076     0.08000
C801        C  0.05494092  0.26477637  0.12380355     0.01800
H802        H  0.01060301  0.30091839  0.12624321     0.09400
H803        H  0.06885245  0.25428365  0.11621093     0.08500
N804        N  0.02578761  0.31044642  0.21789581    -0.35300
N805        N  0.04187106  0.30798974  0.23465602    -0.27500
C806        C  0.03341266  0.31728583  0.25484253    -0.02800
C807        C  0.01093472  0.32564382  0.25059326     0.05800
C808        C  0.00676883  0.32098670  0.22704103     0.03900
H809        H  0.04264121  0.31726312  0.27154086     0.09000
H810        H  0.99091810  0.32479355  0.21722258     0.07900
N811        N  0.15327154  0.21371364  0.83624972    -0.26500
N812        N  0.15913674  0.19181793  0.83053998    -0.34400
C813        C  0.16723866  0.19153907  0.80838040     0.01800
C814        C  0.16672132  0.21442918  0.79952276     0.07900
C815        C  0.15799882  0.22817357  0.81774959    -0.05200
H816        H  0.17360074  0.17580718  0.79962076     0.08500
H817        H  0.15513670  0.24715761  0.81750580     0.09700
Cu818      Cu  0.15666236  0.16291590  0.85268697     0.44200
Cu819      Cu  0.13870764  0.22138841  0.86907165     0.42000
Cu820      Cu  0.12687128  0.16857748  0.90724062     0.43900
N821        N  0.14886471  0.13420266  0.87377121    -0.33900
N822        N  0.13686547  0.13586001  0.89359809    -0.28100
C823        C  0.13233462  0.11378073  0.90170329    -0.04200
C824        C  0.14240184  0.09766362  0.88634927     0.08000
C825        C  0.15276338  0.11124617  0.86891323     0.01800
H826        H  0.12216105  0.10975263  0.91732961     0.09400
H827        H  0.16132254  0.10492281  0.85313401     0.08500
N828        N  0.11826434  0.20346942  0.91563539    -0.35300
N829        N  0.12215702  0.22219957  0.90189711    -0.27500
C830        C  0.11316841  0.24156012  0.91230772    -0.02800
C831        C  0.10335381  0.23478097  0.93362212     0.05800
C832        C  0.10697254  0.21056046  0.93521076     0.03900
H833        H  0.11355225  0.25925129  0.90476403     0.09000
H834        H  0.10119853  0.19880073  0.94922158     0.07900
N835        N  0.04369972  0.27581801  0.04812270    -0.26500
N836        N  0.03145036  0.29543199  0.05114622    -0.34400
C837        C  0.02569193  0.29754256  0.07400589     0.01800
C838        C  0.03498284  0.27845205  0.08613342     0.07900
C839        C  0.04633793  0.26501288  0.06921127    -0.05200
H840        H  0.01673250  0.31266587  0.08142577     0.08500
H841        H  0.05653971  0.24909820  0.07214880     0.09700
Cu842      Cu  0.02580754  0.32006655  0.02490506     0.44200
Cu843      Cu  0.05768289  0.26635029  0.01552922     0.42000
Cu844      Cu  0.05102127  0.31101884  0.96787401     0.43900
N845        N  0.02374198  0.34450121  0.99792672    -0.33900
N846        N  0.03223344  0.34128791  0.97651697    -0.28100
C847        C  0.02655230  0.36020654  0.96298079    -0.04200
C848        C  0.01443925  0.37616906  0.97687869     0.08000
C849        C  0.01294255  0.36554902  0.99885225     0.01800
H850        H  0.03094305  0.36220365  0.94450739     0.09400
H851        H  0.00396009  0.37222825  0.01424238     0.08500
N852        N  0.06944571  0.27939145  0.96480177    -0.35300
N853        N  0.07144449  0.26306573  0.98160576    -0.27500
C854        C  0.08391159  0.24469610  0.97316893    -0.02800
C855        C  0.09023212  0.24985182  0.95012081     0.05800
C856        C  0.08082328  0.27196711  0.94544505     0.03900
H857        H  0.08819273  0.22884913  0.98314620     0.09000
H858        H  0.08180590  0.28181585  0.92902417     0.07900
N859        N  0.60207550  0.77125139  0.70512576    -0.26500
N860        N  0.60044295  0.76116156  0.68416568    -0.34400
C861        C  0.62090893  0.75131858  0.67834096     0.01800
C862        C  0.63645646  0.75472798  0.69648397     0.07900
C863        C  0.62403714  0.76733594  0.71348462    -0.05200
H864        H  0.62416468  0.74212506  0.66195426     0.08500
H865        H  0.63060321  0.77359623  0.73026491     0.09700
Cu866      Cu  0.57188405  0.76109568  0.66242592     0.44200
Cu867      Cu  0.57356306  0.79045388  0.71925861     0.42000
Cu868      Cu  0.52807836  0.80141823  0.67238416     0.43900
N869        N  0.55021061  0.77145108  0.63566169    -0.33900
N870        N  0.53408237  0.78784095  0.63872169    -0.28100
C871        C  0.52479129  0.79339094  0.61750916    -0.04200
C872        C  0.53562704  0.77949925  0.60051316     0.08000
C873        C  0.55160829  0.76580144  0.61273582     0.01800
H874        H  0.51165135  0.80691266  0.61458563     0.09400
H875        H  0.56436184  0.75374683  0.60538486     0.08500
N876        N  0.52525881  0.81114344  0.70781731    -0.35300
N877        N  0.54117924  0.80793819  0.72464170    -0.27500
C878        C  0.53275345  0.81719610  0.74494103    -0.02800
C879        C  0.51050450  0.82633139  0.74065705     0.05800
C880        C  0.50646858  0.82205485  0.71700419     0.03900
H881        H  0.54198929  0.81702337  0.76163458     0.09000
H882        H  0.49097658  0.82677574  0.70700078     0.07900
N883        N  0.46090612  0.89858066  0.84640421    -0.26500
N884        N  0.43960885  0.90782169  0.84678041    -0.34400
C885        C  0.43602574  0.91860357  0.86750422     0.01800
C886        C  0.45602819  0.91635869  0.88106578     0.07900
C887        C  0.47162007  0.90378196  0.86706624    -0.05200
H888        H  0.41995438  0.92753158  0.87226389     0.08500
H889        H  0.48920813  0.89836684  0.87178141     0.09700
Cu890      Cu  0.41524287  0.90534910  0.82008042     0.44200
Cu891      Cu  0.47316869  0.87848530  0.81766344     0.42000
Cu892      Cu  0.42678014  0.86602829  0.77343247     0.43900
N893        N  0.38968307  0.89538760  0.79647632    -0.33900
N894        N  0.39348274  0.88002444  0.77941236    -0.28100
C895        C  0.37290884  0.87521908  0.76867460    -0.04200
C896        C  0.35548417  0.88840572  0.77951926     0.08000
C897        C  0.36681872  0.90100678  0.79701237     0.01800
H898        H  0.37069764  0.86260377  0.75450973     0.09400
H899        H  0.35888119  0.91242641  0.81002394     0.08500
N900        N  0.46154013  0.85473092  0.77088092    -0.35300
N901        N  0.47834320  0.85871390  0.78657984    -0.27500
C902        C  0.49840206  0.84870273  0.77871750    -0.02800
C903        C  0.49399966  0.83818833  0.75701775     0.05800
C904        C  0.47048146  0.84243817  0.75274065     0.03900
H905        H  0.51506472  0.84949348  0.78784172     0.09000
H906        H  0.46051162  0.83706995  0.73739940     0.07900
N907        N  0.29167647  0.89028179  0.78196953    -0.26500
N908        N  0.29491842  0.87140570  0.76865242    -0.34400
C909        C  0.31797256  0.86866022  0.76458879     0.01800
C910        C  0.32992428  0.88658613  0.77607929     0.07900
C911        C  0.31270776  0.89998377  0.78694544    -0.05200
H912        H  0.32551044  0.85393685  0.75508368     0.08500
H913        H  0.31531238  0.91515261  0.79829498     0.09700
Cu914      Cu  0.26815792  0.84857486  0.75937163     0.44200
Cu915      Cu  0.25868263  0.90028935  0.79401290     0.42000
Cu916      Cu  0.21062777  0.85727906  0.78466969     0.43900
N917        N  0.24136277  0.82398026  0.75719591    -0.33900
N918        N  0.22009835  0.82684923  0.76598223    -0.28100
C919        C  0.20734192  0.80712884  0.76148900    -0.04200
C920        C  0.22152942  0.79106394  0.74979903     0.08000
C921        C  0.24289075  0.80244122  0.74733588     0.01800
H922        H  0.18933748  0.80442279  0.76689166     0.09400
H923        H  0.25849874  0.79558774  0.73898670     0.08500
N924        N  0.20736523  0.88903992  0.80336698    -0.35300
N925        N  0.22452495  0.90469323  0.80618893    -0.27500
C926        C  0.21640608  0.92324282  0.81860852    -0.02800
C927        C  0.19314243  0.91900804  0.82412022     0.05800
C928        C  0.18800392  0.89715857  0.81423972     0.03900
H929        H  0.22681274  0.93852561  0.82357044     0.09000
H930        H  0.17134106  0.88792587  0.81470933     0.07900
N931        N  0.08357476  0.95789937  0.89265784    -0.26500
N932        N  0.07799974  0.98001872  0.89782977    -0.34400
C933        C  0.05664478  0.98046132  0.90762041     0.01800
C934        C  0.04823499  0.95746311  0.90897699     0.07900
C935        C  0.06585472  0.94349851  0.89955783    -0.05200
H936        H  0.04822896  0.99636696  0.91401260     0.08500
H937        H  0.06574111  0.92438400  0.89773802     0.09700
Cu938      Cu  0.09971954  0.00886838  0.89310861     0.44200
Cu939      Cu  0.11518778  0.94961545  0.87619300     0.42000
Cu940      Cu  0.15482775  0.00084926  0.86494353     0.43900
N941        N  0.12315653  0.03625595  0.88814767    -0.33900
N942        N  0.14335669  0.03372424  0.87708383    -0.28100
C943        C  0.15376279  0.05516708  0.87528288    -0.04200
C944        C  0.13952050  0.07173577  0.88615466     0.08000
C945        C  0.12030819  0.05911750  0.89412253     0.01800
H946        H  0.17033848  0.05848365  0.86658429     0.09400
H947        H  0.10493537  0.06614952  0.90276077     0.08500
N948        N  0.16127390  0.96604087  0.85430801    -0.35300
N949        N  0.14692854  0.94782945  0.85797228    -0.27500
C950        C  0.15609598  0.92836143  0.84787489    -0.02800
C951        C  0.17726568  0.93450175  0.83758476     0.05800
C952        C  0.18003231  0.95848047  0.84207951     0.03900
H953        H  0.14792815  0.91099261  0.84804386     0.09000
H954        H  0.19439400  0.96975223  0.83644495     0.07900
C955        C  0.95228408  0.97741531  0.95172479     0.81000
N956        N  0.95271410  0.96122299  0.96969432    -0.77300
C957        C  0.97023121  0.94488815  0.97105146     0.83400
N958        N  0.98768097  0.94529280  0.95471355    -0.77200
C959        C  0.98733444  0.96137269  0.93673878     0.83500
N960        N  0.96966757  0.97739425  0.93544418    -0.79000
N961        N  0.70283733  0.32953549  0.66092496    -0.26500
N962        N  0.68102186  0.32520792  0.66765346    -0.34400
C963        C  0.68002074  0.30382531  0.67819313     0.01800
C964        C  0.70228571  0.29419789  0.67834591     0.07900
C965        C  0.71639693  0.31104930  0.66747920    -0.05200
H966        H  0.66426737  0.29611921  0.68565559     0.08500
H967        H  0.73506615  0.30985812  0.66434735     0.09700
Cu968      Cu  0.65312814  0.34818551  0.66309704     0.44200
Cu969      Cu  0.71276825  0.36022209  0.64267067     0.42000
Cu970      Cu  0.66511517  0.40220234  0.63237424     0.43900
N971        N  0.62716336  0.37197314  0.65366750    -0.33900
N972        N  0.63156671  0.39171859  0.64176658    -0.28100
C973        C  0.61114755  0.40207598  0.63589369    -0.04200
C974        C  0.59305601  0.38830251  0.64481693     0.08000
C975        C  0.60382865  0.36939752  0.65606801     0.01800
H976        H  0.60958799  0.41799620  0.62523089     0.09400
H977        H  0.59534577  0.35415381  0.66408609     0.08500
N978        N  0.69906644  0.40711161  0.62039022    -0.35300
N979        N  0.71634280  0.39176826  0.62349638    -0.27500
C980        C  0.73552904  0.39996200  0.61218204    -0.02800
C981        C  0.73001984  0.42152456  0.60168968     0.05800
C982        C  0.70681979  0.42550409  0.60732515     0.03900
H983        H  0.75220383  0.39087494  0.61160743     0.09000
H984        H  0.69612809  0.44039224  0.60184722     0.07900
N985        N  0.83640860  0.46200804  0.52868868    -0.26500
N986        N  0.84097667  0.48379756  0.52115758    -0.34400
C987        C  0.86224529  0.48428397  0.51108159     0.01800
C988        C  0.87151397  0.46165515  0.51208794     0.07900
C989        C  0.85460145  0.44788863  0.52314912    -0.05200
H990        H  0.87003848  0.49985957  0.50298492     0.08500
H991        H  0.85549746  0.42906984  0.52699401     0.09700
Cu992      Cu  0.81805512  0.51195241  0.52358105     0.44200
Cu993      Cu  0.80567927  0.45309721  0.54636692     0.42000
Cu994      Cu  0.76357570  0.50173730  0.55318468     0.43900
N995        N  0.79349249  0.53827056  0.52848635    -0.33900
N996        N  0.77354662  0.53476390  0.53983307    -0.28100
C997        C  0.76238116  0.55568207  0.54177947    -0.04200
C998        C  0.77588130  0.57304603  0.53086635     0.08000
C999        C  0.79544629  0.56135580  0.52259856     0.01800
H1000       H  0.74595730  0.55816086  0.55095990     0.09400
H1001       H  0.81053531  0.56920300  0.51397774     0.08500
N1002       N  0.75910500  0.46775595  0.56717067    -0.35300
N1003       N  0.77446459  0.45031441  0.56510012    -0.27500
C1004       C  0.76655817  0.43119208  0.57708873    -0.02800
C1005       C  0.74515530  0.43681600  0.58700143     0.05800
C1006       C  0.74093907  0.46007580  0.58029691     0.03900
H1007       H  0.77571356  0.41443892  0.57842735     0.09000
H1008       H  0.72596143  0.47080917  0.58495909     0.07900
N1009       N  0.46266281  0.40372381  0.57149819    -0.26500
N1010       N  0.48495985  0.40953550  0.56842961    -0.34400
C1011       C  0.48753443  0.42030183  0.54737071     0.01800
C1012       C  0.46580323  0.42165438  0.53661145     0.07900
C1013       C  0.45038229  0.41116319  0.55247263    -0.05200
H1014       H  0.50394784  0.42735812  0.54076990     0.08500
H1015       H  0.43163257  0.40908630  0.55032696     0.09700
Cu1016     Cu  0.51118498  0.40420400  0.59312216     0.44200
Cu1017     Cu  0.45031714  0.38593778  0.60166980     0.42000
Cu1018     Cu  0.49559355  0.37341958  0.64594020     0.43900
N1019       N  0.53517966  0.39632366  0.61936801    -0.33900
N1020       N  0.52965770  0.38426283  0.63864605    -0.28100
C1021       C  0.54930734  0.38022143  0.65122759    -0.04200
C1022       C  0.56795934  0.39059743  0.63939641     0.08000
C1023       C  0.55836223  0.40069941  0.61932010     0.01800
H1024       H  0.55000615  0.37017837  0.66754823     0.09400
H1025       H  0.56767415  0.40956779  0.60515409     0.08500
N1026       N  0.46059604  0.36368179  0.64940896    -0.35300
N1027       N  0.44405470  0.36775509  0.63348049    -0.27500
C1028       C  0.42368253  0.35837247  0.64140893    -0.02800
C1029       C  0.42765793  0.34810178  0.66337919     0.05800
C1030       C  0.45122130  0.35188731  0.66781498     0.03900
H1031       H  0.40721913  0.35901263  0.63191357     0.09000
H1032       H  0.46100061  0.34620484  0.68320775     0.07900
N1033       N  0.31590020  0.28229422  0.70702743    -0.26500
N1034       N  0.31259932  0.27564145  0.72918049    -0.34400
C1035       C  0.29165190  0.26507645  0.73135669     0.01800
C1036       C  0.28097818  0.26469707  0.70949956     0.07900
C1037       C  0.29693355  0.27555848  0.69432429    -0.05200
H1038       H  0.28525662  0.25711047  0.74754402     0.08500
H1039       H  0.29499994  0.27811220  0.67548507     0.09700
Cu1040     Cu  0.33701494  0.27791703  0.75564429     0.44200
Cu1041     Cu  0.34688277  0.29954983  0.69638203     0.42000
Cu1042     Cu  0.39289130  0.30098068  0.74332950     0.43900
N1043       N  0.36372527  0.27630741  0.77983543    -0.33900
N1044       N  0.38479805  0.28509506  0.77566106    -0.28100
C1045       C  0.39803774  0.28220321  0.79518238    -0.04200
C1046       C  0.38452814  0.27082520  0.81223724     0.08000
C1047       C  0.36290646  0.26735625  0.80182879     0.01800
H1048       H  0.41596492  0.28828895  0.79697183     0.09400
H1049       H  0.34744421  0.25962395  0.80985676     0.08500
N1050       N  0.39610696  0.31613788  0.70977610    -0.35300
N1051       N  0.37986784  0.31600317  0.69299581    -0.27500
C1052       C  0.38835373  0.32768447  0.67392731    -0.02800
C1053       C  0.41096190  0.33533558  0.67891858     0.05800
C1054       C  0.41520527  0.32767462  0.70175485     0.03900
H1055       H  0.37887865  0.33014245  0.65754175     0.09000
H1056       H  0.43109030  0.33026921  0.71189674     0.07900
N1057       N  0.76061457  0.70876853  0.59092314    -0.26500
N1058       N  0.75097138  0.68744883  0.59269424    -0.34400
C1059       C  0.73982304  0.68543096  0.61344849     0.01800
C1060       C  0.74228106  0.70655083  0.62551281     0.07900
C1061       C  0.75539521  0.72109210  0.61062457    -0.05200
H1062       H  0.73055336  0.66966304  0.61926990     0.08500
H1063       H  0.76111866  0.73907535  0.61408889     0.09700
Cu1064     Cu  0.75363073  0.66126450  0.56760183     0.44200
Cu1065     Cu  0.78090747  0.71881254  0.56156032     0.42000
Cu1066     Cu  0.79031935  0.67122470  0.51771823     0.43900
N1067       N  0.76391225  0.63437261  0.54549488    -0.33900
N1068       N  0.77825677  0.63762129  0.52748178    -0.28100
C1069       C  0.78393057  0.61625578  0.51859697    -0.04200
C1070       C  0.77230878  0.59889113  0.53156460     0.08000
C1071       C  0.75974507  0.61105341  0.54839205     0.01800
H1072       H  0.79615176  0.61353081  0.50428970     0.09400
H1073       H  0.74954661  0.60347449  0.56266794     0.08500
N1074       N  0.80155282  0.70626494  0.51356255    -0.35300
N1075       N  0.79897292  0.72318943  0.52950349    -0.27500
C1076       C  0.80900178  0.74329495  0.52119743    -0.02800
C1077       C  0.81794570  0.73891020  0.49891040     0.05800
C1078       C  0.81283688  0.71529612  0.49465714     0.03900
H1079       H  0.80926871  0.76003603  0.53046873     0.09000
H1080       H  0.81720866  0.70529760  0.47903038     0.07900
N1081       N  0.88721529  0.84922015  0.45763620    -0.26500
N1082       N  0.89106407  0.85586796  0.43557503    -0.34400
C1083       C  0.90412530  0.87569402  0.43534463     0.01800
C1084       C  0.90898015  0.88195501  0.45841249     0.07900
C1085       C  0.89810753  0.86468256  0.47212637    -0.05200
H1086       H  0.91038918  0.88426066  0.41941665     0.08500
H1087       H  0.89837802  0.86327748  0.49117491     0.09700
Cu1088     Cu  0.88056615  0.83714061  0.40627775     0.44200
Cu1089     Cu  0.86793400  0.81880831  0.46608297     0.42000
Cu1090     Cu  0.85025709  0.78225624  0.41507832     0.43900
N1091       N  0.87102377  0.81548767  0.37870323    -0.33900
N1092       N  0.85934947  0.79537597  0.38162265    -0.28100
C1093       C  0.85504757  0.78600083  0.36020647    -0.04200
C1094       C  0.86482467  0.80082514  0.34317026     0.08000
C1095       C  0.87482870  0.81929613  0.35556832     0.01800
H1096       H  0.84557912  0.76960179  0.35724622     0.09400
H1097       H  0.88373970  0.83467700  0.34832104     0.08500
N1098       N  0.84314460  0.77368766  0.45041564    -0.35300
N1099       N  0.84896205  0.78714138  0.46863616    -0.27500
C1100       C  0.84090152  0.77688522  0.48859991    -0.02800
C1101       C  0.82974003  0.75585664  0.48278028     0.05800
C1102       C  0.83158299  0.75435839  0.45845449     0.03900
H1103       H  0.84320019  0.78411904  0.50610249     0.09000
H1104       H  0.82461073  0.74045295  0.44734072     0.07900
N1105       N  0.41583229  0.31798207  0.94487368    -0.26500
N1106       N  0.42655099  0.31644780  0.92427008    -0.34400
C1107       C  0.43957154  0.33596464  0.92057467     0.01800
C1108       C  0.43732677  0.35059623  0.93978763     0.07900
C1109       C  0.42220556  0.33867036  0.95506046    -0.05200
H1110       H  0.44954821  0.33949215  0.90470026     0.08500
H1111       H  0.41569806  0.34489647  0.97183645     0.09700
Cu1112     Cu  0.42156870  0.28984523  0.90016459     0.44200
Cu1113     Cu  0.39180933  0.29213172  0.95638007     0.42000
Cu1114     Cu  0.37299511  0.25141760  0.90901497     0.43900
N1115       N  0.40472258  0.27345058  0.87272832    -0.33900
N1116       N  0.38595705  0.25995743  0.87557725    -0.28100
C1117       C  0.37669476  0.25543157  0.85417884    -0.04200
C1118       C  0.39045183  0.26662033  0.83720451     0.08000
C1119       C  0.40810093  0.27775908  0.84965230     0.01800
H1120       H  0.36048163  0.24583868  0.85129612     0.09400
H1121       H  0.42125043  0.28977187  0.84267587     0.08500
N1122       N  0.36221262  0.24878056  0.94416293    -0.35300
N1123       N  0.36836810  0.26370206  0.96110443    -0.27500
C1124       C  0.35754471  0.25710981  0.98128133    -0.02800
C1125       C  0.34422170  0.23697778  0.97690600     0.05800
C1126       C  0.34768993  0.23219346  0.95323923     0.03900
H1127       H  0.35955655  0.26607250  0.99800298     0.09000
H1128       H  0.33998178  0.21783234  0.94323373     0.07900
N1129       N  0.27078059  0.20400210  0.08756122    -0.26500
N1130       N  0.26153298  0.18281084  0.09166953    -0.34400
C1131       C  0.25100793  0.18267500  0.11278471     0.01800
C1132       C  0.25344097  0.20488326  0.12266692     0.07900
C1133       C  0.26585814  0.21814482  0.10610444    -0.05200
H1134       H  0.24196740  0.16747542  0.12025036     0.08500
H1135       H  0.27124360  0.23651415  0.10761200     0.09700
Cu1136     Cu  0.26308972  0.15420557  0.06933601     0.44200
Cu1137     Cu  0.29014436  0.21141799  0.05686742     0.42000
Cu1138     Cu  0.29728297  0.15943016  0.01773968     0.43900
N1139       N  0.27066592  0.12539818  0.04862585    -0.33900
N1140       N  0.28399561  0.12700750  0.02966068    -0.28100
C1141       C  0.28766566  0.10500765  0.02127667    -0.04200
C1142       C  0.27584846  0.08892147  0.03562816     0.08000
C1143       C  0.26522119  0.10250713  0.05274364     0.01800
H1144       H  0.29859275  0.10098180  0.00624218     0.09400
H1145       H  0.25526860  0.09617710  0.06776657     0.08500
N1146       N  0.31059662  0.19326613  0.01072311    -0.35300
N1147       N  0.30876007  0.21182386  0.02487842    -0.27500
C1148       C  0.32049991  0.23027806  0.01512065    -0.02800
C1149       C  0.32984536  0.22305838  0.99375680     0.05800
C1150       C  0.32312480  0.19956123  0.99156194     0.03900
H1151       H  0.32194854  0.24772314  0.02290034     0.09000
H1152       H  0.32745621  0.18769179  0.97728036     0.07900
N1153       N  0.18838004  0.82515599  0.16578982    -0.26500
N1154       N  0.16683164  0.82513650  0.17441722    -0.34400
C1155       C  0.16276609  0.80460258  0.18579192     0.01800
C1156       C  0.18271306  0.79098619  0.18475856     0.07900
C1157       C  0.19877608  0.80451174  0.17200597    -0.05200
H1158       H  0.14643351  0.80001652  0.19441267     0.08500
H1159       H  0.21647549  0.79959396  0.16729247     0.09700
Cu1160     Cu  0.14280551  0.85202101  0.17052644     0.44200
Cu1161     Cu  0.20166794  0.85328814  0.14528442     0.42000
Cu1162     Cu  0.15741667  0.89906209  0.13203883     0.43900
N1163       N  0.11803742  0.87500881  0.15748528    -0.33900
N1164       N  0.12319105  0.89207615  0.14229525    -0.28100
C1165       C  0.10311414  0.90149741  0.13404234    -0.04200
C1166       C  0.08453061  0.88985118  0.14483494     0.08000
C1167       C  0.09465614  0.87326099  0.15967669     0.01800
H1168       H  0.10211736  0.91495880  0.12037881     0.09400
H1169       H  0.08573414  0.85960891  0.16977868     0.08500
N1170       N  0.19207610  0.90050732  0.12104279    -0.35300
N1171       N  0.20808562  0.88395885  0.12501197    -0.27500
C1172       C  0.22818120  0.89054827  0.11416131    -0.02800
C1173       C  0.22459061  0.91232421  0.10316736     0.05800
C1174       C  0.20157036  0.91803835  0.10799533     0.03900
H1175       H  0.24424149  0.88037464  0.11444386     0.09000
H1176       H  0.19218583  0.93364826  0.10207263     0.07900
N1177       N  0.33014773  0.94819038  0.02442420    -0.26500
N1178       N  0.33339537  0.96986319  0.01590826    -0.34400
C1179       C  0.35354208  0.97073944  0.00383774     0.01800
C1180       C  0.36366549  0.94853345  0.00443856     0.07900
C1181       C  0.34827359  0.93448242  0.01745140    -0.05200
H1182       H  0.36024235  0.98648278  0.99508621     0.08500
H1183       H  0.35036670  0.91591271  0.02195288     0.09700
Cu1184     Cu  0.31125572  0.99818088  0.02048908     0.44200
Cu1185     Cu  0.30123628  0.93975383  0.04578631     0.42000
Cu1186     Cu  0.26286775  0.99187732  0.05793814     0.43900
N1187       N  0.29075120  0.02664424  0.02945766    -0.33900
N1188       N  0.27284716  0.02470945  0.04406445    -0.28100
C1189       C  0.26414516  0.04654445  0.04802588    -0.04200
C1190       C  0.27719175  0.06282916  0.03501712     0.08000
C1191       C  0.29386303  0.04954178  0.02344895     0.01800
H1192       H  0.24973038  0.05032145  0.05979733     0.09400
H1193       H  0.30787130  0.05609149  0.01229682     0.08500
N1194       N  0.25715148  0.95742531  0.07034483    -0.35300
N1195       N  0.27085558  0.93883634  0.06666076    -0.27500
C1196       C  0.26167560  0.91985128  0.07808154    -0.02800
C1197       C  0.24119145  0.92681793  0.08917403     0.05800
C1198       C  0.23890390  0.95066401  0.08380271     0.03900
H1199       H  0.26915077  0.90221794  0.07798794     0.09000
H1200       H  0.22504155  0.96239664  0.08945462     0.07900
N1201       N  0.86866032  0.80331771  0.27873777    -0.26500
N1202       N  0.85036348  0.78925077  0.28186184    -0.34400
C1203       C  0.84673828  0.78569089  0.30501794     0.01800
C1204       C  0.86340913  0.79839666  0.31731713     0.07900
C1205       C  0.87704640  0.80949731  0.30013931    -0.05200
H1206       H  0.83250664  0.77525188  0.31232483     0.08500
H1207       H  0.89186106  0.82118850  0.30300129     0.09700
Cu1208     Cu  0.83035869  0.77706260  0.25444257     0.44200
Cu1209     Cu  0.87979829  0.81260346  0.24464440     0.42000
Cu1210     Cu  0.84272282  0.79184521  0.19382545     0.43900
N1211       N  0.80966732  0.76674537  0.22676939    -0.33900
N1212       N  0.81383845  0.77121489  0.20424901    -0.28100
C1213       C  0.79699397  0.76045487  0.19127150    -0.04200
C1214       C  0.78143435  0.74927241  0.20662070     0.08000
C1215       C  0.79019495  0.75361978  0.22887963     0.01800
H1216       H  0.79609721  0.76077830  0.17219999     0.09400
H1217       H  0.78336317  0.74712954  0.24551919     0.08500
N1218       N  0.87331157  0.81244160  0.19078590    -0.35300
N1219       N  0.88663072  0.81916037  0.20879350    -0.27500
C1220       C  0.90525769  0.83124303  0.20035751    -0.02800
C1221       C  0.90355475  0.83255036  0.17601303     0.05800
C1222       C  0.88305394  0.82050344  0.17054920     0.03900
H1223       H  0.91897705  0.83876371  0.21123728     0.09000
H1224       H  0.87595710  0.81742244  0.15310960     0.07900
N1225       N  0.95675968  0.89505194  0.06544501    -0.26500
N1226       N  0.97919598  0.90039610  0.06261865    -0.34400
C1227       C  0.98228328  0.91113381  0.04165095     0.01800
C1228       C  0.96076866  0.91297443  0.03055109     0.07900
C1229       C  0.94489986  0.90277293  0.04622027    -0.05200
H1230       H  0.99892840  0.91797916  0.03544035     0.08500
H1231       H  0.92612731  0.90122050  0.04386464     0.09700
Cu1232     Cu  0.00504471  0.89535679  0.08759884     0.44200
Cu1233     Cu  0.94388727  0.87786679  0.09589863     0.42000
Cu1234     Cu  0.98790556  0.87082875  0.14274193     0.43900
N1235       N  0.02802891  0.89172542  0.11547568    -0.33900
N1236       N  0.02185395  0.88222773  0.13590512    -0.28100
C1237       C  0.04084671  0.88099821  0.14996649    -0.04200
C1238       C  0.05974658  0.89051020  0.13781896     0.08000
C1239       C  0.05098754  0.89715650  0.11602458     0.01800
H1240       H  0.04096789  0.87336529  0.16753274     0.09400
H1241       H  0.06073491  0.90447395  0.10130309     0.08500
N1242       N  0.95328347  0.85972979  0.14563319    -0.35300
N1243       N  0.93727012  0.86154914  0.12876613    -0.27500
C1244       C  0.91704226  0.85185197  0.13673726    -0.02800
C1245       C  0.92053062  0.84391229  0.15973150     0.05800
C1246       C  0.94366619  0.84927425  0.16470058     0.03900
H1247       H  0.90090185  0.85101005  0.12670934     0.09000
H1248       H  0.95297831  0.84561779  0.18096642     0.07900
C1249       C  0.97263854  0.92903079  0.99181458    -0.15600
C1250       C  0.95577280  0.92573457  0.00814107    -0.30800
H1251       H  0.98950495  0.92041746  0.99419802     0.13400
H1252       H  0.93838867  0.93309184  0.00542133     0.13900
C1253       C  0.02615740  0.94984385  0.92040266    -0.15600
C1254       C  0.00774752  0.96467898  0.92111289    -0.30800
H1255       H  0.02550316  0.93271789  0.92929101     0.13400
H1256       H  0.00836861  0.98110789  0.91096286     0.13900
C1257       C  0.92667137  0.00559767  0.97195123    -0.15600
C1258       C  0.93566876  0.99753314  0.95171401    -0.30800
H1259       H  0.93001806  0.99589142  0.98824254     0.13400
H1260       H  0.93414432  0.00823848  0.93576974     0.13900
C1261       C  0.98021795  0.98385934  0.42311582    -0.15600
C1262       C  0.96597222  0.98843100  0.40474597    -0.30800
H1263       H  0.99788385  0.99113152  0.42338940     0.13400
H1264       H  0.94791848  0.98220880  0.40496140     0.13900
C1265       C  0.93089105  0.91899602  0.45172403    -0.15600
C1266       C  0.92494189  0.90108621  0.46634844    -0.30800
H1267       H  0.92233886  0.92052826  0.43464727     0.13400
H1268       H  0.93259970  0.89984836  0.48387304     0.13900
C1269       C  0.01688216  0.95970756  0.50312074    -0.15600
C1270       C  0.99958291  0.94436220  0.49773444    -0.30800
H1271       H  0.01735022  0.97727237  0.49510193     0.13400
H1272       H  0.99850304  0.92735899  0.50683173     0.09100
C1273       C  0.21205568  0.17432460  0.68704318    -0.15600
C1274       C  0.19718882  0.15570647  0.68605449    -0.30800
H1275       H  0.22831628  0.17382052  0.67709265     0.13400
H1276       H  0.18027992  0.15639709  0.69481198     0.13900
C1277       C  0.17604362  0.22229006  0.77643607    -0.15600
C1278       C  0.17717412  0.20701254  0.75829261    -0.30800
H1279       H  0.18347966  0.24001192  0.77491442     0.13400
H1280       H  0.16858157  0.18981771  0.75980833     0.13900
C1281       C  0.25909187  0.25175217  0.70373011    -0.15600
C1282       C  0.24261314  0.24826460  0.72040642    -0.30800
H1283       H  0.25734836  0.24365478  0.68646683     0.13400
H1284       H  0.24411758  0.25761131  0.73707159     0.13900
C1285       C  0.50069782  0.91603072  0.47134728    -0.15600
C1286       C  0.50058359  0.89799941  0.45583395    -0.30800
H1287       H  0.51103602  0.91443578  0.48740775     0.13400
H1288       H  0.49138052  0.89960695  0.43910916     0.13900
C1289       C  0.42904909  0.95130120  0.44008237    -0.15600
C1290       C  0.41205266  0.96772510  0.43806884    -0.30800
H1291       H  0.42677104  0.93426866  0.43142288     0.13400
H1292       H  0.41442854  0.98542340  0.44521667     0.13900
C1293       C  0.46865410  0.98607725  0.50907815    -0.15600
C1294       C  0.44828623  0.99482865  0.51696438    -0.30800
H1295       H  0.48436159  0.98760573  0.51984760     0.13400
H1296       H  0.43233952  0.99164369  0.50691825     0.13900
C1297       C  0.47799292  0.99218088  0.96767623    -0.15600
C1298       C  0.49003797  0.00007147  0.94890662    -0.30800
H1299       H  0.47793933  0.00254270  0.98379437     0.13400
H1300       H  0.48856319  0.99060405  0.93230667     0.13900
C1301       C  0.40353013  0.95813571  0.99183307    -0.15600
C1302       C  0.38608692  0.94203049  0.99308465    -0.30800
H1303       H  0.40178355  0.97469420  0.00143882     0.13400
H1304       H  0.38793918  0.92464314  0.98512967     0.13900
C1305       C  0.44160696  0.92899850  0.92000557    -0.15600
C1306       C  0.45974612  0.92610231  0.90505269    -0.30800
H1307       H  0.42442941  0.92216196  0.91516205     0.13400
H1308       H  0.47734021  0.93140371  0.91021871     0.13900
C1309       C  0.68184213  0.68659949  0.25728132    -0.15600
C1310       C  0.67724664  0.70384736  0.27296299    -0.30800
H1311       H  0.67575322  0.66861930  0.26081173     0.13400
H1312       H  0.68189552  0.72219315  0.26917518     0.13900
C1313       C  0.74407387  0.73062308  0.21724683    -0.15600
C1314       C  0.76121205  0.73372177  0.20118502    -0.30800
H1315       H  0.74375332  0.74183439  0.23278937     0.13400
H1316       H  0.76127287  0.72364117  0.18490605     0.13900
C1317       C  0.72039238  0.65236287  0.18847927    -0.15600
C1318       C  0.70626877  0.63322447  0.18709556    -0.30800
H1319       H  0.73722049  0.65220582  0.17950641     0.13400
H1320       H  0.68878415  0.63354651  0.19465557     0.13900
C1321       C  0.68856320  0.19994635  0.17085620    -0.15600
C1322       C  0.68438875  0.18260538  0.15508286    -0.30800
H1323       H  0.68051334  0.21724340  0.16829536     0.13400
H1324       H  0.69100092  0.16476593  0.15801750     0.13900
C1325       C  0.76095328  0.16582649  0.20187095    -0.15600
C1326       C  0.77830301  0.16338443  0.21779644    -0.30800
H1327       H  0.76274801  0.15777414  0.18458198     0.13400
H1328       H  0.77628700  0.17003423  0.23562966     0.13900
C1329       C  0.72719068  0.23512331  0.23988777    -0.15600
C1330       C  0.71215303  0.25339844  0.24166848    -0.30800
H1331       H  0.74329008  0.23529002  0.25015402     0.13400
H1332       H  0.69554691  0.25307024  0.23226054     0.13900
C1333       C  0.69435696  0.25347756  0.69187000    -0.15600
C1334       C  0.70954713  0.27164440  0.68954281    -0.30800
H1335       H  0.67725964  0.25455620  0.68343298     0.13400
H1336       H  0.72720148  0.27030887  0.69664514     0.13900
C1337       C  0.73485079  0.21802797  0.75936070    -0.15600
C1338       C  0.73885885  0.20133119  0.77598239    -0.30800
H1339       H  0.74331470  0.23526828  0.76090008     0.13400
H1340       H  0.73169677  0.18354459  0.77413268     0.13900
C1341       C  0.64912573  0.17583115  0.70894567    -0.15600
C1342       C  0.66610975  0.17865597  0.72522819    -0.30800
H1343       H  0.65056664  0.18423620  0.69170683     0.13400
H1344       H  0.66501373  0.16901475  0.74186153     0.13900
C1345       C  0.26301895  0.67186806  0.71947262    -0.15600
C1346       C  0.28106249  0.67209222  0.73481325    -0.30800
H1347       H  0.26367263  0.65987748  0.70451525     0.13400
H1348       H  0.28043462  0.68278180  0.75068511     0.13900
C1349       C  0.23199140  0.74987220  0.74053538    -0.15600
C1350       C  0.21551089  0.76690529  0.74155688    -0.30800
H1351       H  0.24936756  0.75342670  0.74761881     0.13400
H1352       H  0.19761340  0.76320099  0.73608231     0.13900
C1353       C  0.19291944  0.70073552  0.68042345    -0.15600
C1354       C  0.18525299  0.72018065  0.66909967    -0.30800
H1355       H  0.19022265  0.68336557  0.67260269     0.13400
H1356       H  0.18976100  0.73757367  0.67602507     0.13900
C1357       C  0.16892878  0.68867591  0.24049350    -0.15600
C1358       C  0.15158046  0.68630588  0.22451521    -0.30800
H1359       H  0.16781121  0.67906444  0.25713906     0.13400
H1360       H  0.15298926  0.69453772  0.20719435     0.13900
C1361       C  0.24127187  0.72238630  0.27289291    -0.15600
C1362       C  0.24365874  0.70612560  0.29025022    -0.30800
H1363       H  0.25122107  0.73884956  0.27383937     0.13400
H1364       H  0.23499014  0.68897260  0.28908369     0.13900
C1365       C  0.20582649  0.75902291  0.20371403    -0.15600
C1366       C  0.18520712  0.76742753  0.19598245    -0.30800
H1367       H  0.22172935  0.76930491  0.20082121     0.13400
H1368       H  0.16912413  0.75812843  0.20065624     0.13900
C1369       C  0.95638667  0.48187516  0.01944222    -0.15600
C1370       C  0.97262000  0.48653526  0.03606590    -0.30800
H1371       H  0.93867715  0.48861841  0.02148941     0.13400
H1372       H  0.99073725  0.48121385  0.03359329     0.13900
C1373       C  0.99897787  0.41551290  0.98554971    -0.15600
C1374       C  0.00271402  0.39833632  0.96964818    -0.30800
H1375       H  0.00743145  0.41437658  0.00272903     0.13400
H1376       H  0.99552422  0.39966499  0.95192991     0.13900
C1377       C  0.92799365  0.44460892  0.94683567    -0.15600
C1378       C  0.91008094  0.45977995  0.94366114    -0.30800
H1379       H  0.92840644  0.42814426  0.93694529     0.13400
H1380       H  0.91007672  0.47688340  0.95242547     0.13900
C1381       C  0.48750057  0.45693329  0.92602098    -0.15600
C1382       C  0.47100489  0.46130801  0.90952962    -0.30800
H1383       H  0.50438777  0.46582626  0.92466334     0.13400
H1384       H  0.45346944  0.45395962  0.91138585     0.13900
C1385       C  0.45213142  0.38517033  0.96228698    -0.15600
C1386       C  0.44825542  0.37431736  0.94166531    -0.30800
H1387       H  0.44690986  0.37653202  0.97865352     0.13400
H1388       H  0.45548579  0.38201426  0.92559952     0.13900
C1389       C  0.51969848  0.42262317  0.99844062    -0.15600
C1390       C  0.53591460  0.43965872  0.00182303    -0.30800
H1391       H  0.52201914  0.40542113  0.00693202     0.13400
H1392       H  0.53341292  0.45745358  0.99479294     0.13900
C1393       C  0.91177133  0.46859415  0.49843574    -0.15600
C1394       C  0.89360365  0.45361003  0.50132640    -0.30800
H1395       H  0.91112400  0.48618481  0.50619493     0.13400
H1396       H  0.89461461  0.43547325  0.49498700     0.13900
C1397       C  0.94495703  0.42602641  0.43154375    -0.15600
C1398       C  0.96194875  0.42046566  0.41610341    -0.30800
H1399       H  0.92730359  0.41923752  0.42884727     0.13400
H1400       H  0.97993923  0.42600054  0.41926753     0.13900
C1401       C  0.98836828  0.49185313  0.46705449    -0.15600
C1402       C  0.99233048  0.50881439  0.48325408    -0.30800
H1403       H  0.99850230  0.49189211  0.45083007     0.13400
H1404       H  0.98337642  0.50834443  0.50015069     0.13900
C1405       C  0.22440900  0.14780930  0.23910361    -0.15600
C1406       C  0.20830538  0.16502719  0.23649575    -0.30800
H1407       H  0.24174279  0.14973748  0.23139967     0.13400
H1408       H  0.19160733  0.16341530  0.24560042     0.13900
C1409       C  0.24354429  0.21246492  0.14554165    -0.15600
C1410       C  0.24091311  0.19662449  0.16324255    -0.30800
H1411       H  0.23742371  0.23059616  0.14741447     0.13400
H1412       H  0.24851546  0.17904872  0.16146841     0.13900
C1413       C  0.16010377  0.24093225  0.21915448    -0.15600
C1414       C  0.17508379  0.23669694  0.20131664    -0.30800
H1415       H  0.16383123  0.23448100  0.23686160     0.13400
H1416       H  0.17174459  0.24454564  0.18407205     0.13900
C1417       C  0.44339745  0.50862696  0.46041450    -0.15600
C1418       C  0.43997603  0.51873454  0.48150283    -0.30800
H1419       H  0.43901469  0.51832444  0.44438549     0.13400
H1420       H  0.44618334  0.50969684  0.49731433     0.13900
C1421       C  0.50372156  0.46423653  0.41979923    -0.15600
C1422       C  0.51969281  0.44692769  0.41705326    -0.30800
H1423       H  0.50567498  0.48060399  0.40969901     0.13400
H1424       H  0.51768748  0.42987818  0.42588184     0.13900
C1425       C  0.47591920  0.43611537  0.49678869    -0.15600
C1426       C  0.46008417  0.43410203  0.51426784    -0.30800
H1427       H  0.49243874  0.42663572  0.49817545     0.13400
H1428       H  0.44287611  0.44211872  0.51239643     0.13900
C1429       C  0.67060838  0.73513275  0.71496855    -0.15600
C1430       C  0.66061333  0.74541769  0.69613441    -0.30800
H1431       H  0.66189887  0.73609945  0.73198071     0.13400
H1432       H  0.66829121  0.74270150  0.67882003     0.13900
C1433       C  0.70604205  0.66183373  0.74196873    -0.15600
C1434       C  0.72182823  0.64417553  0.74280674    -0.30800
H1435       H  0.69057577  0.66071576  0.75312452     0.13400
H1436       H  0.73821970  0.64547891  0.73315134     0.13900
C1437       C  0.72951092  0.69477531  0.66539023    -0.15600
C1438       C  0.73271482  0.71208082  0.64918323    -0.30800
H1439       H  0.73555568  0.67693162  0.66154373     0.13400
H1440       H  0.72836213  0.73035159  0.65330564     0.13900
loop_ 
_geom_bond_atom_site_label_1 
_geom_bond_atom_site_label_2 
_geom_bond_distance 
_geom_bond_site_symmetry_2 
_ccdc_geom_bond_type 
C1            N2   1.361       .  A
C1            N6   1.363       .  A
C1         C1437   1.480       .  S
N2            C3   1.359       .  A
C3            N4   1.356       .  A
C3         C1433   1.474       .  S
N4            C5   1.355       .  A
C5            N6   1.365       .  A
C5         C1429   1.482       .  S
C7            N8   1.356       .  A
C7           N12   1.362       .  A
C7         C1417   1.480       .  S
N8            C9   1.358       .  A
C9           N10   1.360       .  A
C9         C1421   1.474       .  S
N10          C11   1.360       .  A
C11          N12   1.361       .  A
C11        C1425   1.478       .  S
C13          N14   1.358       .  A
C13          N18   1.358       .  A
C13        C1406   1.475       .  S
N14          C15   1.359       .  A
C15          N16   1.360       .  A
C15        C1414   1.476       .  S
N16          C17   1.360       .  A
C17          N18   1.359       .  A
C17        C1410   1.477       .  S
C19          N20   1.359       .  A
C19          N24   1.359       .  A
C19        C1401   1.474       .  S
N20          C21   1.359       .  A
C21          N22   1.357       .  A
C21        C1397   1.476       .  S
N22          C23   1.359       .  A
C23          N24   1.358       .  A
C23        C1393   1.473       .  S
C25          N26   1.356       .  A
C25          N30   1.364       .  A
C25        C1385   1.477       .  S
N26          C27   1.356       .  A
C27          N28   1.358       .  A
C27        C1389   1.473       .  S
N28          C29   1.360       .  A
C29          N30   1.362       .  A
C29        C1381   1.478       .  S
C31          N32   1.360       .  A
C31          N36   1.358       .  A
C31        C1377   1.475       .  S
N32          C33   1.359       .  A
C33          N34   1.357       .  A
C33        C1369   1.474   1_556  S
N34          C35   1.357       .  A
C35          N36   1.358       .  A
C35        C1373   1.471       .  S
C37          N38   1.361       .  A
C37          N42   1.357       .  A
C37        C1365   1.478       .  S
N38          C39   1.360       .  A
C39          N40   1.360       .  A
C39        C1357   1.475       .  S
N40          C41   1.358       .  A
C41          N42   1.358       .  A
C41        C1361   1.476       .  S
C43          N44   1.358       .  A
C43          N48   1.359       .  A
C43        C1345   1.475       .  S
N44          C45   1.356       .  A
C45          N46   1.362       .  A
C45        C1353   1.481       .  S
N46          C47   1.360       .  A
C47          N48   1.360       .  A
C47        C1349   1.477       .  S
C49          N50   1.358       .  A
C49          N54   1.360       .  A
C49        C1342   1.474       .  S
N50          C51   1.357       .  A
C51          N52   1.358       .  A
C51        C1333   1.475       .  S
N52          C53   1.359       .  A
C53          N54   1.359       .  A
C53        C1337   1.476       .  S
C55          N56   1.360       .  A
C55          N60   1.357       .  A
C55        C1329   1.477       .  S
N56          C57   1.361       .  A
C57          N58   1.359       .  A
C57        C1321   1.475       .  S
N58          C59   1.358       .  A
C59          N60   1.358       .  A
C59        C1325   1.473       .  S
C61          N62   1.358       .  A
C61          N66   1.359       .  A
C61        C1313   1.474       .  S
N62          C63   1.358       .  A
C63          N64   1.359       .  A
C63        C1309   1.475       .  S
N64          C65   1.359       .  A
C65          N66   1.359       .  A
C65        C1317   1.475       .  S
C67          N68   1.361       .  A
C67          N72   1.357       .  A
C67        C1301   1.476       .  S
N68          C69   1.362       .  A
C69          N70   1.361       .  A
C69        C1305   1.481       .  S
N70          C71   1.362       .  A
C71          N72   1.355       .  A
C71        C1297   1.482       .  S
C73          N74   1.363       .  A
C73          N78   1.358       .  A
C73        C1293   1.481       .  S
N74          C75   1.360       .  A
C75          N76   1.358       .  A
C75        C1289   1.475       .  S
N76          C77   1.358       .  A
C77          N78   1.359       .  A
C77        C1285   1.476       .  S
C79          N80   1.358       .  A
C79          N84   1.360       .  A
C79        C1273   1.477       .  S
N80          C81   1.358       .  A
C81          N82   1.358       .  A
C81        C1278   1.475       .  S
N82          C83   1.359       .  A
C83          N84   1.360       .  A
C83        C1282   1.476       .  S
N85          C89   1.347       .  A
N85          N86   1.321       .  A
N85         Cu93   2.090       .  S
N86          C87   1.345       .  A
N86         Cu92   2.057       .  S
C87          C88   1.380       .  A
C87          H90   1.082       .  S
C88          C89   1.388       .  A
C88         C194   1.472       .  S
C89          H91   1.082       .  S
Cu92         N95   2.058       .  S
Cu93        N103   2.091       .  S
Cu94         N96   2.093       .  S
Cu94        N102   2.094       .  S
N95          C99   1.340       .  A
N95          N96   1.322       .  A
N96          C97   1.351       .  A
C97          C98   1.388       .  A
C97         H100   1.082       .  S
C98        C1318   1.478       .  S
C98          C99   1.380       .  A
C99         H101   1.082       .  S
N102        C106   1.347       .  A
N102        N103   1.325       .  A
N103        C104   1.349       .  A
C104        C105   1.385       .  A
C104        H107   1.082       .  S
C105        C106   1.386       .  A
C105        C129   1.480       .  S
C106        H108   1.082       .  S
N109        C113   1.351       .  A
N109        N110   1.320       .  A
N109       Cu117   2.088       .  S
N110        C111   1.338       .  A
N110       Cu116   2.046       .  S
C111        C112   1.379       .  A
C111        H114   1.082   1_554  S
C112       C1390   1.476       .  S
C112        C113   1.388       .  A
C113        H115   1.082       .  S
Cu116       N119   2.044       .  S
Cu117       N127   2.090       .  S
Cu118       N120   2.101       .  S
Cu118       N126   2.103       .  S
N119        C123   1.341       .  A
N119        N120   1.321       .  A
N120        C121   1.350       .  A
C121        C122   1.392       .  A
C121        H124   1.082       .  S
C122        C123   1.377       .  A
C122        C170   1.474       .  S
C123        H125   1.082       .  S
N126        C130   1.350       .  A
N126        N127   1.326       .  A
N127        C128   1.346       .  A
C128        C129   1.383       .  A
C128        H131   1.082       .  S
C129        C130   1.387       .  A
C130        H132   1.082       .  S
N133        C137   1.355       .  A
N133        N134   1.322       .  A
N133       Cu141   2.110       .  S
N134        C135   1.337       .  A
N134       Cu140   2.041       .  S
C135        C136   1.372       .  A
C135        H138   1.082       .  S
C136       C1298   1.475       .  S
C136        C137   1.394       .  A
C137        H139   1.082       .  S
Cu140       N143   2.041       .  S
Cu141       N151   2.113       .  S
Cu142       N144   2.092       .  S
Cu142       N150   2.095       .  S
N143        C147   1.341       .  A
N143        N144   1.318       .  A
N144        C145   1.349       .  A
C145        C146   1.391       .  A
C145        H148   1.082       .  S
C146        C147   1.378       .  A
C146        C290   1.471       .  S
C147        H149   1.082       .  S
N150        C154   1.346       .  A
N150        N151   1.327       .  A
N151        C152   1.353       .  A
C152        C153   1.389       .  A
C152        H155   1.082   1_556  S
C153        C154   1.383       .  A
C153        C177   1.484   1_556  S
C154        H156   1.082       .  S
N157        C161   1.353       .  A
N157        N158   1.322       .  A
N157       Cu165   2.107       .  S
N158        C159   1.337       .  A
N158       Cu164   2.043       .  S
C159        C160   1.376       .  A
C159        H162   1.082       .  S
C160       C1322   1.478       .  S
C160        C161   1.391       .  A
C161        H163   1.082       .  S
Cu164       N167   2.042       .  S
Cu165       N175   2.109       .  S
Cu166       N168   2.094       .  S
Cu166       N174   2.096       .  S
N167        C171   1.343       .  A
N167        N168   1.319       .  A
N168        C169   1.348       .  A
C169        C170   1.391       .  A
C169        H172   1.082       .  S
C170        C171   1.379       .  A
C171        H173   1.082       .  S
N174        C178   1.346       .  A
N174        N175   1.327       .  A
N175        C176   1.353       .  A
C176        C177   1.389       .  A
C176        H179   1.082       .  S
C177        C178   1.384       .  A
C178        H180   1.082   1_554  S
N181        C185   1.350       .  A
N181        N182   1.322       .  A
N181       Cu189   2.091       .  S
N182        C183   1.340       .  A
N182       Cu188   2.054       .  S
C183        C184   1.380       .  A
C183        H186   1.082       .  S
C184       C1370   1.476       .  S
C184        C185   1.387       .  A
C185        H187   1.082       .  S
Cu188       N191   2.052       .  S
Cu189       N199   2.093       .  S
Cu190       N192   2.091       .  S
Cu190       N198   2.093       .  S
N191        C195   1.342       .  A
N191        N192   1.320       .  A
N192        C193   1.349       .  A
C193        C194   1.389       .  A
C193        H196   1.082       .  S
C194        C195   1.379       .  A
C195        H197   1.082       .  S
N198        C202   1.347       .  A
N198        N199   1.326       .  A
N199        C200   1.349       .  A
C200        C201   1.385       .  A
C200        H203   1.082   1_655  S
C201        C202   1.383       .  A
C201        C225   1.477   1_655  S
C202        H204   1.082       .  S
N205        C209   1.352       .  A
N205        N206   1.322       .  A
N205       Cu213   2.095       .  S
N206        C207   1.339       .  A
N206       Cu212   2.053       .  S
C207        C208   1.380       .  A
C207        H210   1.082       .  S
C208       C1358   1.479       .  S
C208        C209   1.389       .  A
C209        H211   1.082       .  S
Cu212       N215   2.052       .  S
Cu213       N223   2.096       .  S
Cu214       N216   2.089       .  S
Cu214       N222   2.090       .  S
N215        C219   1.343       .  A
N215        N216   1.320       .  A
N216        C217   1.347       .  A
C217        C218   1.389       .  A
C217        H220   1.082       .  S
C218        C219   1.380       .  A
C218        C242   1.473       .  S
C219        H221   1.082       .  S
N222        C226   1.347       .  A
N222        N223   1.326       .  A
N223        C224   1.349       .  A
C224        C225   1.385       .  A
C224        H227   1.082       .  S
C225        C226   1.383       .  A
C226        H228   1.082   1_455  S
N229        C233   1.352       .  A
N229        N230   1.322       .  A
N229       Cu237   2.101       .  S
N230        C231   1.338       .  A
N230       Cu236   2.048       .  S
C231        C232   1.379       .  A
C231        H234   1.082       .  S
C232       C1402   1.478   1_455  S
C232        C233   1.390       .  A
C233        H235   1.082       .  S
Cu236       N239   2.048       .  S
Cu237       N247   2.103       .  S
Cu238       N240   2.089       .  S
Cu238       N246   2.091       .  S
N239        C243   1.343       .  A
N239        N240   1.319       .  A
N240        C241   1.348       .  A
C241        C242   1.389       .  A
C241        H244   1.082       .  S
C242        C243   1.379       .  A
C243        H245   1.082       .  S
N246        C250   1.345       .  A
N246        N247   1.326       .  A
N247        C248   1.352       .  A
C248        C249   1.387       .  A
C248        H251   1.082       .  S
C249        C250   1.383       .  A
C249        C273   1.480       .  S
C250        H252   1.082       .  S
N253        C257   1.355       .  A
N253        N254   1.322       .  A
N253       Cu261   2.108       .  S
N254        C255   1.337       .  A
N254       Cu260   2.043       .  S
C255        C256   1.372       .  A
C255        H258   1.082       .  S
C256       C1354   1.475       .  S
C256        C257   1.394       .  A
C257        H259   1.082       .  S
Cu260       N263   2.041       .  S
Cu261       N271   2.110       .  S
Cu262       N264   2.086       .  S
Cu262       N270   2.088       .  S
N263        C267   1.341       .  A
N263        N264   1.318       .  A
N264        C265   1.348       .  A
C265        C266   1.390       .  A
C265        H268   1.082       .  S
C266        C267   1.378       .  A
C266        C338   1.471       .  S
C267        H269   1.082       .  S
N270        C274   1.345       .  A
N270        N271   1.327       .  A
N271        C272   1.353       .  A
C272        C273   1.388       .  A
C272        H275   1.082       .  S
C273        C274   1.382       .  A
C274        H276   1.082       .  S
N277        C281   1.351       .  A
N277        N278   1.322       .  A
N277       Cu285   2.092       .  S
N278        C279   1.339       .  A
N278       Cu284   2.051       .  S
C279        C280   1.379       .  A
C279        H282   1.082       .  S
C280       C1341   1.476       .  S
C280        C281   1.388       .  A
C281        H283   1.082       .  S
Cu284       N287   2.050       .  S
Cu285       N295   2.093       .  S
Cu286       N288   2.091       .  S
Cu286       N294   2.092       .  S
N287        C291   1.343       .  A
N287        N288   1.320       .  A
N288        C289   1.347       .  A
C289        C290   1.389       .  A
C289        H292   1.082       .  S
C290        C291   1.379       .  A
C291        H293   1.082       .  S
N294        C298   1.346       .  A
N294        N295   1.326       .  A
N295        C296   1.350       .  A
C296        C297   1.385       .  A
C296        H299   1.082       .  S
C297        C298   1.384       .  A
C297        C321   1.478       .  S
C298        H300   1.082       .  S
N301        C305   1.353       .  A
N301        N302   1.323       .  A
N301       Cu309   2.101       .  S
N302        C303   1.339       .  A
N302       Cu308   2.054       .  S
C303        C304   1.375       .  A
C303        H306   1.082   1_545  S
C304       C1294   1.476   1_545  S
C304        C305   1.392       .  A
C305        H307   1.082       .  S
Cu308       N311   2.053       .  S
Cu309       N319   2.103       .  S
Cu310       N312   2.081       .  S
Cu310       N318   2.083       .  S
N311        C315   1.343       .  A
N311        N312   1.319       .  A
N312        C313   1.347       .  A
C313        C314   1.387       .  A
C313        H316   1.082       .  S
C314        C315   1.380       .  A
C314        C362   1.470       .  S
C315        H317   1.082       .  S
N318        C322   1.345       .  A
N318        N319   1.326       .  A
N319        C320   1.351       .  A
C320        C321   1.387       .  A
C320        H323   1.082       .  S
C321        C322   1.381       .  A
C322        H324   1.082       .  S
N325        C329   1.348       .  A
N325        N326   1.321       .  A
N325       Cu333   2.084       .  S
N326        C327   1.340       .  A
N326       Cu332   2.052       .  S
C327        C328   1.381       .  A
C327        H330   1.082       .  S
C328       C1269   1.475       .  S
C328        C329   1.386       .  A
C329        H331   1.082       .  S
Cu332       N335   2.052       .  S
Cu333       N343   2.085       .  S
Cu334       N336   2.091       .  S
Cu334       N342   2.093       .  S
N335        C339   1.343       .  A
N335        N336   1.321       .  A
N336        C337   1.347       .  A
C337        C338   1.388       .  A
C337        H340   1.082       .  S
C338        C339   1.379       .  A
C339        H341   1.082       .  S
N342        C346   1.348       .  A
N342        N343   1.325       .  A
N343        C344   1.347       .  A
C344        C345   1.383       .  A
C344        H347   1.082   1_565  S
C345        C346   1.385       .  A
C345        C369   1.476   1_565  S
C346        H348   1.082       .  S
N349        C353   1.351       .  A
N349        N350   1.322       .  A
N349       Cu357   2.096       .  S
N350        C351   1.340       .  A
N350       Cu356   2.059       .  S
C351        C352   1.380       .  A
C351        H354   1.082       .  S
C352       C1274   1.479       .  S
C352        C353   1.388       .  A
C353        H355   1.082       .  S
Cu356       N359   2.058       .  S
Cu357       N367   2.097       .  S
Cu358       N360   2.080       .  S
Cu358       N366   2.081       .  S
N359        C363   1.344       .  A
N359        N360   1.320       .  A
N360        C361   1.346       .  A
C361        C362   1.386       .  A
C361        H364   1.082       .  S
C362        C363   1.381       .  A
C363        H365   1.082       .  S
N366        C370   1.346   1_545  A
N366        N367   1.325       .  A
N367        C368   1.349       .  A
C368        C369   1.386       .  A
C368        H371   1.082       .  S
C369        C370   1.382   1_545  A
C370        H372   1.082       .  S
C373        N374   1.360       .  A
C373        N378   1.360       .  A
C373       C1270   1.473       .  S
N374        C375   1.360       .  A
C375        N376   1.356       .  A
C375       C1265   1.474       .  S
N376        C377   1.357       .  A
C377        N378   1.356       .  A
C377       C1261   1.474       .  S
N379        C383   1.351       .  A
N379        N380   1.323       .  A
N379       Cu387   2.092       .  S
N380        C381   1.340       .  A
N380       Cu386   2.064       .  S
C381        C382   1.380       .  A
C381        H384   1.082       .  S
C382       C1434   1.477       .  S
C382        C383   1.387       .  A
C383        H385   1.082       .  S
Cu386       N389   2.063       .  S
Cu387       N397   2.092       .  S
Cu388       N390   2.076       .  S
Cu388       N396   2.077       .  S
N389        C393   1.345       .  A
N389        N390   1.320       .  A
N390        C391   1.345       .  A
C391        C392   1.386       .  A
C391        H394   1.082       .  S
C392        C393   1.383       .  A
C392        C464   1.473       .  S
C393        H395   1.082       .  S
N396        C400   1.344       .  A
N396        N397   1.325       .  A
N397        C398   1.350       .  A
C398        C399   1.386       .  A
C398        H401   1.082       .  S
C399        C400   1.381       .  A
C399        C423   1.473       .  S
C400        H402   1.082       .  S
N403        C407   1.349       .  A
N403        N404   1.322       .  A
N403       Cu411   2.087       .  S
N404        C405   1.341       .  A
N404       Cu410   2.058       .  S
C405        C406   1.382       .  A
C405        H408   1.082       .  S
C406       C1378   1.477       .  S
C406        C407   1.386       .  A
C407        H409   1.082       .  S
Cu410       N413   2.058       .  S
Cu411       N421   2.088       .  S
Cu412       N414   2.083       .  S
Cu412       N420   2.084       .  S
N413        C417   1.343       .  A
N413        N414   1.321       .  A
N414        C415   1.348       .  A
C415        C416   1.387       .  A
C415        H418   1.082       .  S
C416        C417   1.380       .  A
C416        C526   1.471       .  S
C417        H419   1.082       .  S
N420        C424   1.344       .  A
N420        N421   1.325       .  A
N421        C422   1.349       .  A
C422        C423   1.384       .  A
C422        H425   1.082       .  S
C423        C424   1.382       .  A
C424        H426   1.082       .  S
N427        C431   1.353       .  A
N427        N428   1.322       .  A
N427       Cu435   2.100       .  S
N428        C429   1.338       .  A
N428       Cu434   2.050       .  S
C429        C430   1.378       .  A
C429        H432   1.082       .  S
C430       C1346   1.479       .  S
C430        C431   1.390       .  A
C431        H433   1.082       .  S
Cu434       N437   2.050       .  S
Cu435       N445   2.102       .  S
Cu436       N438   2.091       .  S
Cu436       N444   2.093       .  S
N437        C441   1.343       .  A
N437        N438   1.320       .  A
N438        C439   1.348       .  A
C439        C440   1.390       .  A
C439        H442   1.082       .  S
C440        C441   1.379       .  A
C440        C488   1.473       .  S
C441        H443   1.082       .  S
N444        C448   1.346       .  A
N444        N445   1.326       .  A
N445        C446   1.351       .  A
C446        C447   1.386       .  A
C446        H449   1.082       .  S
C447        C448   1.384       .  A
C447        C471   1.480       .  S
C448        H450   1.082       .  S
N451        C455   1.353       .  A
N451        N452   1.323       .  A
N451       Cu459   2.105       .  S
N452        C453   1.341       .  A
N452       Cu458   2.060       .  S
C453        C454   1.381       .  A
C453        H456   1.082       .  S
C454       C1382   1.484       .  S
C454        C455   1.390       .  A
C455        H457   1.082       .  S
Cu458       N461   2.059       .  S
Cu459       N469   2.106       .  S
Cu460       N462   2.082       .  S
Cu460       N468   2.084       .  S
N461        C465   1.343       .  A
N461        N462   1.320       .  A
N462        C463   1.348       .  A
C463        C464   1.387       .  A
C463        H466   1.082       .  S
C464        C465   1.381       .  A
C465        H467   1.082       .  S
N468        C472   1.345       .  A
N468        N469   1.326       .  A
N469        C470   1.352       .  A
C470        C471   1.388       .  A
C470        H473   1.082       .  S
C471        C472   1.382       .  A
C472        H474   1.082       .  S
N475        C479   1.353       .  A
N475        N476   1.322       .  A
N475       Cu483   2.101       .  S
N476        C477   1.340       .  A
N476       Cu482   2.054       .  S
C477        C478   1.375       .  A
C477        H480   1.082       .  S
C478       C1418   1.477       .  S
C478        C479   1.392       .  A
C479        H481   1.082       .  S
Cu482       N485   2.052       .  S
Cu483       N493   2.102       .  S
Cu484       N486   2.088       .  S
Cu484       N492   2.090       .  S
N485        C489   1.343       .  A
N485        N486   1.320       .  A
N486        C487   1.347       .  A
C487        C488   1.389       .  A
C487        H490   1.082       .  S
C488        C489   1.380       .  A
C489        H491   1.082       .  S
N492        C496   1.347       .  A
N492        N493   1.326       .  A
N493        C494   1.350       .  A
C494        C495   1.386       .  A
C494        H497   1.082       .  S
C495        C496   1.383       .  A
C495        C519   1.479       .  S
C496        H498   1.082       .  S
N499        C503   1.352       .  A
N499        N500   1.321       .  A
N499       Cu507   2.100       .  S
N500        C501   1.338       .  A
N500       Cu506   2.046       .  S
C501        C502   1.379       .  A
C501        H504   1.082       .  S
C502       C1362   1.480       .  S
C502        C503   1.391       .  A
C503        H505   1.082       .  S
Cu506       N509   2.045       .  S
Cu507       N517   2.103       .  S
Cu508       N510   2.088       .  S
Cu508       N516   2.091       .  S
N509        C513   1.341       .  A
N509        N510   1.320       .  A
N510        C511   1.349       .  A
C511        C512   1.389       .  A
C511        H514   1.082       .  S
C512        C513   1.378       .  A
C512        C608   1.470       .  S
C513        H515   1.082       .  S
N516        C520   1.347       .  A
N516        N517   1.327       .  A
N517        C518   1.350       .  A
C518        C519   1.386       .  A
C518        H521   1.082       .  S
C519        C520   1.383       .  A
C520        H522   1.082       .  S
N523        C527   1.346       .  A
N523        N524   1.320       .  A
N523       Cu531   2.082       .  S
N524        C525   1.345       .  A
N524       Cu530   2.057       .  S
C525        C526   1.381       .  A
C525        H528   1.082       .  S
C526        C527   1.386       .  A
C527        H529   1.082       .  S
Cu530       N533   2.058       .  S
Cu531       N541   2.084       .  S
Cu532       N534   2.100       .  S
Cu532       N540   2.101       .  S
N533        C537   1.340       .  A
N533        N534   1.323       .  A
N534        C535   1.352       .  A
C535        C536   1.389       .  A
C535        H538   1.082       .  S
C536       C1338   1.480       .  S
C536        C537   1.380       .  A
C537        H539   1.082       .  S
N540        C544   1.351       .  A
N540        N541   1.325       .  A
N541        C542   1.345       .  A
C542        C543   1.383       .  A
C542        H545   1.082       .  S
C543        C544   1.388       .  A
C543        C567   1.480       .  S
C544        H546   1.082       .  S
N547        C551   1.353       .  A
N547        N548   1.321       .  A
N547       Cu555   2.103       .  S
N548        C549   1.338       .  A
N548       Cu554   2.045   1_556  S
C549        C550   1.373       .  A
C549        H552   1.082   1_556  S
C550       C1257   1.475       .  S
C550        C551   1.393       .  A
C551        H553   1.082       .  S
Cu554       N557   2.043       .  S
Cu555       N565   2.105       .  S
Cu556       N558   2.092       .  S
Cu556       N564   2.094   1_554  S
N557        C561   1.341       .  A
N557        N558   1.319       .  A
N558        C559   1.350       .  A
C559        C560   1.391       .  A
C559        H562   1.082       .  S
C560        C561   1.378       .  A
C560        C632   1.472       .  S
C561        H563   1.082       .  S
N564        C568   1.346       .  A
N564        N565   1.327       .  A
N565        C566   1.351       .  A
C566        C567   1.387       .  A
C566        H569   1.082       .  S
C567        C568   1.383       .  A
C568        H570   1.082       .  S
N571        C575   1.350       .  A
N571        N572   1.322       .  A
N571       Cu579   2.088       .  S
N572        C573   1.341       .  A
N572       Cu578   2.062       .  S
C573        C574   1.381       .  A
C573        H576   1.082       .  S
C574       C1405   1.477       .  S
C574        C575   1.386       .  A
C575        H577   1.082       .  S
Cu578       N581   2.060       .  S
Cu579       N589   2.089       .  S
Cu580       N582   2.089       .  S
Cu580       N588   2.090       .  S
N581        C585   1.345       .  A
N581        N582   1.321       .  A
N582        C583   1.347       .  A
C583        C584   1.388       .  A
C583        H586   1.082       .  S
C584        C585   1.381       .  A
C584        C646   1.473       .  S
C585        H587   1.082       .  S
N588        C592   1.347   1_545  A
N588        N589   1.325       .  A
N589        C590   1.349       .  A
C590        C591   1.384       .  A
C590        H593   1.082       .  S
C591        C592   1.384   1_545  A
C591        C615   1.477   1_545  S
C592        H594   1.082       .  S
N595        C599   1.352       .  A
N595        N596   1.322       .  A
N595       Cu603   2.099       .  S
N596        C597   1.339       .  A
N596       Cu602   2.054       .  S
C597        C598   1.379       .  A
C597        H600   1.082       .  S
C598       C1290   1.479       .  S
C598        C599   1.389       .  A
C599        H601   1.082       .  S
Cu602       N605   2.053       .  S
Cu603       N613   2.100       .  S
Cu604       N606   2.080       .  S
Cu604       N612   2.081       .  S
N605        C609   1.344       .  A
N605        N606   1.320       .  A
N606        C607   1.345       .  A
C607        C608   1.387       .  A
C607        H610   1.082       .  S
C608        C609   1.380       .  A
C609        H611   1.082       .  S
N612        C616   1.346       .  A
N612        N613   1.325       .  A
N613        C614   1.350       .  A
C614        C615   1.386       .  A
C614        H617   1.082   1_565  S
C615        C616   1.382       .  A
C616        H618   1.082       .  S
N619        C623   1.350       .  A
N619        N620   1.323       .  A
N619       Cu627   2.088       .  S
N620        C621   1.340       .  A
N620       Cu626   2.059       .  S
C621        C622   1.380       .  A
C621        H624   1.082       .  S
C622       C1326   1.475       .  S
C622        C623   1.386       .  A
C623        H625   1.082       .  S
Cu626       N629   2.057       .  S
Cu627       N637   2.090       .  S
Cu628       N630   2.084       .  S
Cu628       N636   2.084       .  S
N629        C633   1.345       .  A
N629        N630   1.320       .  A
N630        C631   1.345       .  A
C631        C632   1.387       .  A
C631        H634   1.082       .  S
C632        C633   1.381       .  A
C633        H635   1.082       .  S
N636        C640   1.346       .  A
N636        N637   1.324       .  A
N637        C638   1.348       .  A
C638        C639   1.386       .  A
C638        H641   1.082       .  S
C639        C640   1.383       .  A
C639        C663   1.476       .  S
C640        H642   1.082       .  S
N643        C647   1.349       .  A
N643        N644   1.322       .  A
N643       Cu651   2.094       .  S
N644        C645   1.344       .  A
N644       Cu650   2.063       .  S
C645        C646   1.380       .  A
C645        H648   1.082       .  S
C646        C647   1.388       .  A
C647        H649   1.082       .  S
Cu650       N653   2.063   1_455  S
Cu651       N661   2.094   1_455  S
Cu652       N654   2.075       .  S
Cu652       N660   2.076       .  S
N653        C657   1.343       .  A
N653        N654   1.321       .  A
N654        C655   1.346       .  A
C655        C656   1.383       .  A
C655        H658   1.082       .  S
C656       C1262   1.474   1_545  S
C656        C657   1.384       .  A
C657        H659   1.082   1_645  S
N660        C664   1.346       .  A
N660        N661   1.324       .  A
N661        C662   1.348       .  A
C662        C663   1.386       .  A
C662        H665   1.082       .  S
C663        C664   1.382       .  A
C664        H666   1.082       .  S
N667        C671   1.351       .  A
N667        N668   1.321       .  A
N667       Cu675   2.094       .  S
N668        C669   1.339       .  A
N668       Cu674   2.048       .  S
C669        C670   1.379       .  A
C669        H672   1.082       .  S
C670       C1310   1.478       .  S
C670        C671   1.389       .  A
C671        H673   1.082       .  S
Cu674       N677   2.046       .  S
Cu675       N685   2.096       .  S
Cu676       N678   2.095       .  S
Cu676       N684   2.096       .  S
N677        C681   1.343       .  A
N677        N678   1.320       .  A
N678        C679   1.347       .  A
C679        C680   1.390       .  A
C679        H682   1.082       .  S
C680        C681   1.378       .  A
C680        C728   1.472       .  S
C681        H683   1.082       .  S
N684        C688   1.349       .  A
N684        N685   1.326       .  A
N685        C686   1.348       .  A
C686        C687   1.385       .  A
C686        H689   1.082       .  S
C687        C688   1.385       .  A
C687        C711   1.480       .  S
C688        H690   1.082       .  S
N691        C695   1.352       .  A
N691        N692   1.321       .  A
N691       Cu699   2.094       .  S
N692        C693   1.339       .  A
N692       Cu698   2.051       .  S
C693        C694   1.380       .  A
C693        H696   1.082       .  S
C694       C1286   1.478       .  S
C694        C695   1.389       .  A
C695        H697   1.082       .  S
Cu698       N701   2.050       .  S
Cu699       N709   2.096       .  S
Cu700       N702   2.095       .  S
Cu700       N708   2.096       .  S
N701        C705   1.343       .  A
N701        N702   1.321       .  A
N702        C703   1.348       .  A
C703        C704   1.389       .  A
C703        H706   1.082       .  S
C704        C705   1.379       .  A
C704        C872   1.472       .  S
C705        H707   1.082       .  S
N708        C712   1.349       .  A
N708        N709   1.326       .  A
N709        C710   1.348       .  A
C710        C711   1.385       .  A
C710        H713   1.082       .  S
C711        C712   1.385       .  A
C712        H714   1.082       .  S
N715        C719   1.353       .  A
N715        N716   1.320       .  A
N715       Cu723   2.097       .  S
N716        C717   1.336       .  A
N716       Cu722   2.042       .  S
C717        C718   1.377       .  A
C717        H720   1.082       .  S
C718       C1422   1.477       .  S
C718        C719   1.391       .  A
C719        H721   1.082       .  S
Cu722       N725   2.041       .  S
Cu723       N733   2.099       .  S
Cu724       N726   2.093       .  S
Cu724       N732   2.095       .  S
N725        C729   1.341       .  A
N725        N726   1.319       .  A
N726        C727   1.349       .  A
C727        C728   1.391       .  A
C727        H730   1.082       .  S
C728        C729   1.378       .  A
C729        H731   1.082       .  S
N732        C736   1.347       .  A
N732        N733   1.327       .  A
N733        C734   1.349       .  A
C734        C735   1.385       .  A
C734        H737   1.082       .  S
C735        C736   1.384       .  A
C735        C759   1.478       .  S
C736        H738   1.082       .  S
N739        C743   1.350       .  A
N739        N740   1.321       .  A
N739       Cu747   2.092       .  S
N740        C741   1.341       .  A
N740       Cu746   2.059       .  S
C741        C742   1.383       .  A
C741        H744   1.082       .  S
C742       C1330   1.481       .  S
C742        C743   1.388       .  A
C743        H745   1.082       .  S
Cu746       N749   2.059       .  S
Cu747       N757   2.093       .  S
Cu748       N750   2.087       .  S
Cu748       N756   2.088       .  S
N749        C753   1.344       .  A
N749        N750   1.321       .  A
N750        C751   1.347       .  A
C751        C752   1.387       .  A
C751        H754   1.082       .  S
C752        C753   1.380       .  A
C752        C776   1.470       .  S
C753        H755   1.082       .  S
N756        C760   1.347       .  A
N756        N757   1.325       .  A
N757        C758   1.349       .  A
C758        C759   1.385       .  A
C758        H761   1.082       .  S
C759        C760   1.384       .  A
C760        H762   1.082       .  S
N763        C767   1.350       .  A
N763        N764   1.322       .  A
N763       Cu771   2.093       .  S
N764        C765   1.341       .  A
N764       Cu770   2.059       .  S
C765        C766   1.381       .  A
C765        H768   1.082       .  S
C766       C1398   1.478       .  S
C766        C767   1.387       .  A
C767        H769   1.082       .  S
Cu770       N773   2.056       .  S
Cu771       N781   2.093       .  S
Cu772       N774   2.084       .  S
Cu772       N780   2.085       .  S
N773        C777   1.344       .  A
N773        N774   1.320       .  A
N774        C775   1.347       .  A
C775        C776   1.387       .  A
C775        H778   1.082       .  S
C776        C777   1.380       .  A
C777        H779   1.082       .  S
N780        C784   1.344       .  A
N780        N781   1.325       .  A
N781        C782   1.351       .  A
C782        C783   1.386       .  A
C782        H785   1.082   1_655  S
C783        C784   1.383       .  A
C783        C807   1.478   1_655  S
C784        H786   1.082       .  S
N787        C791   1.352       .  A
N787        N788   1.322       .  A
N787       Cu795   2.101       .  S
N788        C789   1.339       .  A
N788       Cu794   2.048       .  S
C789        C790   1.378       .  A
C789        H792   1.082       .  S
C790       C1413   1.478       .  S
C790        C791   1.390       .  A
C791        H793   1.082       .  S
Cu794       N797   2.046       .  S
Cu795       N805   2.102       .  S
Cu796       N798   2.082       .  S
Cu796       N804   2.084       .  S
N797        C801   1.341       .  A
N797        N798   1.319       .  A
N798        C799   1.347       .  A
C799        C800   1.389       .  A
C799        H802   1.082       .  S
C800        C801   1.379       .  A
C800        C838   1.470       .  S
C801        H803   1.082       .  S
N804        C808   1.344       .  A
N804        N805   1.326       .  A
N805        C806   1.351       .  A
C806        C807   1.387       .  A
C806        H809   1.082       .  S
C807        C808   1.382       .  A
C808        H810   1.082   1_455  S
N811        C815   1.351       .  A
N811        N812   1.321       .  A
N811       Cu819   2.086       .  S
N812        C813   1.339       .  A
N812       Cu818   2.054       .  S
C813        C814   1.381       .  A
C813        H816   1.082       .  S
C814       C1277   1.478       .  S
C814        C815   1.388       .  A
C815        H817   1.082       .  S
Cu818       N821   2.053       .  S
Cu819       N829   2.088       .  S
Cu820       N822   2.083       .  S
Cu820       N828   2.084       .  S
N821        C825   1.342       .  A
N821        N822   1.320       .  A
N822        C823   1.347       .  A
C823        C824   1.387       .  A
C823        H826   1.082       .  S
C824        C825   1.379       .  A
C824        C944   1.469       .  S
C825        H827   1.082       .  S
N828        C832   1.347       .  A
N828        N829   1.326       .  A
N829        C830   1.346       .  A
C830        C831   1.383       .  A
C830        H833   1.082       .  S
C831        C832   1.382       .  A
C831        C855   1.473       .  S
C832        H834   1.082       .  S
N835        C839   1.346       .  A
N835        N836   1.321       .  A
N835       Cu843   2.086       .  S
N836        C837   1.343       .  A
N836       Cu842   2.053       .  S
C837        C838   1.379       .  A
C837        H840   1.082       .  S
C838        C839   1.387       .  A
C839        H841   1.082       .  S
Cu842       N845   2.054   1_554  S
Cu843       N853   2.087   1_554  S
Cu844       N846   2.077       .  S
Cu844       N852   2.079       .  S
N845        C849   1.339       .  A
N845        N846   1.321       .  A
N846        C847   1.349       .  A
C847        C848   1.385       .  A
C847        H850   1.082       .  S
C848       C1374   1.474       .  S
C848        C849   1.381       .  A
C849        H851   1.082   1_556  S
N852        C856   1.345       .  A
N852        N853   1.325       .  A
N853        C854   1.347       .  A
C854        C855   1.384       .  A
C854        H857   1.082       .  S
C855        C856   1.382       .  A
C856        H858   1.082       .  S
N859        C863   1.356       .  A
N859        N860   1.322       .  A
N859       Cu867   2.116       .  S
N860        C861   1.336       .  A
N860       Cu866   2.040       .  S
C861        C862   1.370       .  A
C861        H864   1.082       .  S
C862       C1430   1.476       .  S
C862        C863   1.395       .  A
C863        H865   1.082       .  S
Cu866       N869   2.038       .  S
Cu867       N877   2.119       .  S
Cu868       N870   2.088       .  S
Cu868       N876   2.091       .  S
N869        C873   1.342       .  A
N869        N870   1.317       .  A
N870        C871   1.348       .  A
C871        C872   1.391       .  A
C871        H874   1.082       .  S
C872        C873   1.379       .  A
C873        H875   1.082       .  S
N876        C880   1.344       .  A
N876        N877   1.327       .  A
N877        C878   1.355       .  A
C878        C879   1.391       .  A
C878        H881   1.082       .  S
C879        C880   1.382       .  A
C879        C903   1.485       .  S
C880        H882   1.082       .  S
N883        C887   1.353       .  A
N883        N884   1.323       .  A
N883       Cu891   2.110       .  S
N884        C885   1.341       .  A
N884       Cu890   2.057       .  S
C885        C886   1.380       .  A
C885        H888   1.082       .  S
C886       C1306   1.483       .  S
C886        C887   1.391       .  A
C887        H889   1.082       .  S
Cu890       N893   2.055       .  S
Cu891       N901   2.111       .  S
Cu892       N894   2.087       .  S
Cu892       N900   2.089       .  S
N893        C897   1.343       .  A
N893        N894   1.320       .  A
N894        C895   1.348       .  A
C895        C896   1.389       .  A
C895        H898   1.082       .  S
C896        C897   1.381       .  A
C896        C910   1.473       .  S
C897        H899   1.082       .  S
N900        C904   1.345       .  A
N900        N901   1.326       .  A
N901        C902   1.354       .  A
C902        C903   1.390       .  A
C902        H905   1.082       .  S
C903        C904   1.384       .  A
C904        H906   1.082       .  S
N907        C911   1.346       .  A
N907        N908   1.321       .  A
N907       Cu915   2.083       .  S
N908        C909   1.345       .  A
N908       Cu914   2.061       .  S
C909        C910   1.382       .  A
C909        H912   1.082       .  S
C910        C911   1.387       .  A
C911        H913   1.082       .  S
Cu914       N917   2.063       .  S
Cu915       N925   2.083       .  S
Cu916       N918   2.092       .  S
Cu916       N924   2.093       .  S
N917        C921   1.341       .  A
N917        N918   1.322       .  A
N918        C919   1.351       .  A
C919        C920   1.387       .  A
C919        H922   1.082       .  S
C920       C1350   1.480       .  S
C920        C921   1.381       .  A
C921        H923   1.082       .  S
N924        C928   1.348       .  A
N924        N925   1.325       .  A
N925        C926   1.347       .  A
C926        C927   1.383       .  A
C926        H929   1.082       .  S
C927        C928   1.385       .  A
C927        C951   1.476       .  S
C928        H930   1.082       .  S
N931        C935   1.350       .  A
N931        N932   1.321       .  A
N931       Cu939   2.087       .  S
N932        C933   1.339       .  A
N932       Cu938   2.056   1_565  S
C933        C934   1.381       .  A
C933        H936   1.082       .  S
C934       C1253   1.478       .  S
C934        C935   1.387       .  A
C935        H937   1.082       .  S
Cu938       N941   2.056       .  S
Cu939       N949   2.088       .  S
Cu940       N942   2.086       .  S
Cu940       N948   2.088   1_545  S
N941        C945   1.343       .  A
N941        N942   1.321       .  A
N942        C943   1.347       .  A
C943        C944   1.387       .  A
C943        H946   1.082       .  S
C944        C945   1.379       .  A
C945        H947   1.082       .  S
N948        C952   1.347       .  A
N948        N949   1.325       .  A
N949        C950   1.347       .  A
C950        C951   1.383       .  A
C950        H953   1.082       .  S
C951        C952   1.384       .  A
C952        H954   1.082       .  S
C955        N956   1.363       .  A
C955        N960   1.355       .  A
C955       C1258   1.479       .  S
N956        C957   1.362       .  A
C957        N958   1.360       .  A
C957       C1249   1.479       .  S
N958        C959   1.359       .  A
C959        N960   1.356       .  A
C959       C1254   1.474   1_655  S
N961        C965   1.349       .  A
N961        N962   1.323       .  A
N961       Cu969   2.086       .  S
N962        C963   1.342       .  A
N962       Cu968   2.068       .  S
C963        C964   1.382       .  A
C963        H966   1.082       .  S
C964       C1334   1.476       .  S
C964        C965   1.384       .  A
C965        H967   1.082       .  S
Cu968       N971   2.067       .  S
Cu969       N979   2.086       .  S
Cu970       N972   2.070       .  S
Cu970       N978   2.070       .  S
N971        C975   1.345       .  A
N971        N972   1.321       .  A
N972        C973   1.344       .  A
C973        C974   1.383       .  A
C973        H976   1.082       .  S
C974        C975   1.383       .  A
C974       C1022   1.469       .  S
C975        H977   1.082       .  S
N978        C982   1.344       .  A
N978        N979   1.323       .  A
N979        C980   1.348       .  A
C980        C981   1.386       .  A
C980        H983   1.082       .  S
C981        C982   1.381       .  A
C981       C1005   1.472       .  S
C982        H984   1.082       .  S
N985        C989   1.348       .  A
N985        N986   1.322       .  A
N985       Cu993   2.078       .  S
N986        C987   1.341       .  A
N986       Cu992   2.063       .  S
C987        C988   1.382       .  A
C987        H990   1.082       .  S
C988       C1394   1.474       .  S
C988        C989   1.384       .  A
C989        H991   1.082       .  S
Cu992       N995   2.063       .  S
Cu993      N1003   2.079       .  S
Cu994       N996   2.081       .  S
Cu994      N1002   2.082       .  S
N995        C999   1.344       .  A
N995        N996   1.321       .  A
N996        C997   1.346       .  A
C997        C998   1.386       .  A
C997       H1000   1.082       .  S
C998        C999   1.381       .  A
C998       C1070   1.471       .  S
C999       H1001   1.082       .  S
N1002      C1006   1.345       .  A
N1002      N1003   1.324       .  A
N1003      C1004   1.347       .  A
C1004      C1005   1.383       .  A
C1004      H1007   1.082       .  S
C1005      C1006   1.383       .  A
C1006      H1008   1.082       .  S
N1009      C1013   1.350       .  A
N1009      N1010   1.323       .  A
N1009     Cu1017   2.098       .  S
N1010      C1011   1.343       .  A
N1010     Cu1016   2.067       .  S
C1011      C1012   1.382       .  A
C1011      H1014   1.082       .  S
C1012      C1426   1.480       .  S
C1012      C1013   1.387       .  A
C1013      H1015   1.082       .  S
Cu1016     N1019   2.066       .  S
Cu1017     N1027   2.098       .  S
Cu1018     N1020   2.076       .  S
Cu1018     N1026   2.077       .  S
N1019      C1023   1.344       .  A
N1019      N1020   1.321       .  A
N1020      C1021   1.346       .  A
C1021      C1022   1.384       .  A
C1021      H1024   1.082       .  S
C1022      C1023   1.382       .  A
C1023      H1025   1.082       .  S
N1026      C1030   1.344       .  A
N1026      N1027   1.324       .  A
N1027      C1028   1.351       .  A
C1028      C1029   1.388       .  A
C1028      H1031   1.082       .  S
C1029      C1030   1.383       .  A
C1029      C1053   1.480       .  S
C1030      H1032   1.082       .  S
N1033      C1037   1.352       .  A
N1033      N1034   1.321       .  A
N1033     Cu1041   2.101       .  S
N1034      C1035   1.338       .  A
N1034     Cu1040   2.049       .  S
C1035      C1036   1.379       .  A
C1035      H1038   1.082       .  S
C1036      C1281   1.480       .  S
C1036      C1037   1.391       .  A
C1037      H1039   1.082       .  S
Cu1040     N1043   2.049       .  S
Cu1041     N1051   2.102       .  S
Cu1042     N1044   2.086       .  S
Cu1042     N1050   2.088       .  S
N1043      C1047   1.342       .  A
N1043      N1044   1.319       .  A
N1044      C1045   1.347       .  A
C1045      C1046   1.389       .  A
C1045      H1048   1.082       .  S
C1046      C1047   1.380       .  A
C1046      C1118   1.472       .  S
C1047      H1049   1.082       .  S
N1050      C1054   1.345       .  A
N1050      N1051   1.326       .  A
N1051      C1052   1.351       .  A
C1052      C1053   1.387       .  A
C1052      H1055   1.082       .  S
C1053      C1054   1.383       .  A
C1054      H1056   1.082       .  S
N1057      C1061   1.352       .  A
N1057      N1058   1.322       .  A
N1057     Cu1065   2.102       .  S
N1058      C1059   1.342       .  A
N1058     Cu1064   2.060       .  S
C1059      C1060   1.382       .  A
C1059      H1062   1.082       .  S
C1060      C1438   1.484       .  S
C1060      C1061   1.390       .  A
C1061      H1063   1.082       .  S
Cu1064     N1067   2.058       .  S
Cu1065     N1075   2.103       .  S
Cu1066     N1068   2.083       .  S
Cu1066     N1074   2.085       .  S
N1067      C1071   1.343       .  A
N1067      N1068   1.321       .  A
N1068      C1069   1.347       .  A
C1069      C1070   1.387       .  A
C1069      H1072   1.082       .  S
C1070      C1071   1.380       .  A
C1071      H1073   1.082       .  S
N1074      C1078   1.347       .  A
N1074      N1075   1.326       .  A
N1075      C1076   1.349       .  A
C1076      C1077   1.387       .  A
C1076      H1079   1.082       .  S
C1077      C1078   1.383       .  A
C1077      C1101   1.478       .  S
C1078      H1080   1.082       .  S
N1081      C1085   1.349       .  A
N1081      N1082   1.321       .  A
N1081     Cu1089   2.086       .  S
N1082      C1083   1.340       .  A
N1082     Cu1088   2.059       .  S
C1083      C1084   1.383       .  A
C1083      H1086   1.082       .  S
C1084      C1266   1.479       .  S
C1084      C1085   1.387       .  A
C1085      H1087   1.082       .  S
Cu1088     N1091   2.059       .  S
Cu1089     N1099   2.087       .  S
Cu1090     N1092   2.096       .  S
Cu1090     N1098   2.097       .  S
N1091      C1095   1.345       .  A
N1091      N1092   1.321       .  A
N1092      C1093   1.348       .  A
C1093      C1094   1.389       .  A
C1093      H1096   1.082       .  S
C1094      C1095   1.380       .  A
C1094      C1204   1.474       .  S
C1095      H1097   1.082       .  S
N1098      C1102   1.348       .  A
N1098      N1099   1.325       .  A
N1099      C1100   1.348       .  A
C1100      C1101   1.384       .  A
C1100      H1103   1.082       .  S
C1101      C1102   1.386       .  A
C1102      H1104   1.082       .  S
N1105      C1109   1.351       .  A
N1105      N1106   1.322       .  A
N1105     Cu1113   2.097       .  S
N1106      C1107   1.340       .  A
N1106     Cu1112   2.052       .  S
C1107      C1108   1.375       .  A
C1107      H1110   1.082       .  S
C1108      C1386   1.476       .  S
C1108      C1109   1.391       .  A
C1109      H1111   1.082       .  S
Cu1112     N1115   2.049       .  S
Cu1113     N1123   2.098       .  S
Cu1114     N1116   2.088       .  S
Cu1114     N1122   2.090       .  S
N1115      C1119   1.343       .  A
N1115      N1116   1.320       .  A
N1116      C1117   1.347       .  A
C1117      C1118   1.389       .  A
C1117      H1120   1.082       .  S
C1118      C1119   1.379       .  A
C1119      H1121   1.082       .  S
N1122      C1126   1.347       .  A
N1122      N1123   1.325       .  A
N1123      C1124   1.350       .  A
C1124      C1125   1.386       .  A
C1124      H1127   1.082       .  S
C1125      C1126   1.384       .  A
C1125      C1149   1.479       .  S
C1126      H1128   1.082       .  S
N1129      C1133   1.352       .  A
N1129      N1130   1.323       .  A
N1129     Cu1137   2.101       .  S
N1130      C1131   1.339       .  A
N1130     Cu1136   2.056       .  S
C1131      C1132   1.380       .  A
C1131      H1134   1.082       .  S
C1132      C1409   1.480       .  S
C1132      C1133   1.389       .  A
C1133      H1135   1.082       .  S
Cu1136     N1139   2.055       .  S
Cu1137     N1147   2.102       .  S
Cu1138     N1140   2.084       .  S
Cu1138     N1146   2.085       .  S
N1139      C1143   1.344       .  A
N1139      N1140   1.320       .  A
N1140      C1141   1.346       .  A
C1141      C1142   1.387       .  A
C1141      H1144   1.082       .  S
C1142      C1143   1.381       .  A
C1142      C1190   1.472       .  S
C1143      H1145   1.082       .  S
N1146      C1150   1.346   1_554  A
N1146      N1147   1.325       .  A
N1147      C1148   1.350       .  A
C1148      C1149   1.387   1_554  A
C1148      H1151   1.082       .  S
C1149      C1150   1.382       .  A
C1150      H1152   1.082       .  S
N1153      C1157   1.351       .  A
N1153      N1154   1.323       .  A
N1153     Cu1161   2.099       .  S
N1154      C1155   1.340       .  A
N1154     Cu1160   2.056       .  S
C1155      C1156   1.375       .  A
C1155      H1158   1.082       .  S
C1156      C1366   1.475       .  S
C1156      C1157   1.390       .  A
C1157      H1159   1.082       .  S
Cu1160     N1163   2.053       .  S
Cu1161     N1171   2.100       .  S
Cu1162     N1164   2.073       .  S
Cu1162     N1170   2.074       .  S
N1163      C1167   1.342       .  A
N1163      N1164   1.319       .  A
N1164      C1165   1.345       .  A
C1165      C1166   1.386       .  A
C1165      H1168   1.082       .  S
C1166      C1167   1.381       .  A
C1166      C1238   1.468       .  S
C1167      H1169   1.082       .  S
N1170      C1174   1.343       .  A
N1170      N1171   1.325       .  A
N1171      C1172   1.351       .  A
C1172      C1173   1.388       .  A
C1172      H1175   1.082       .  S
C1173      C1174   1.381       .  A
C1173      C1197   1.477       .  S
C1174      H1176   1.082       .  S
N1177      C1181   1.353       .  A
N1177      N1178   1.322       .  A
N1177     Cu1185   2.098       .  S
N1178      C1179   1.339       .  A
N1178     Cu1184   2.055       .  S
C1179      C1180   1.379       .  A
C1179      H1182   1.082   1_554  S
C1180      C1302   1.480   1_554  S
C1180      C1181   1.390       .  A
C1181      H1183   1.082       .  S
Cu1184     N1187   2.054   1_565  S
Cu1185     N1195   2.100       .  S
Cu1186     N1188   2.083   1_565  S
Cu1186     N1194   2.084       .  S
N1187      C1191   1.343       .  A
N1187      N1188   1.319       .  A
N1188      C1189   1.347       .  A
C1189      C1190   1.388       .  A
C1189      H1192   1.082       .  S
C1190      C1191   1.380       .  A
C1191      H1193   1.082       .  S
N1194      C1198   1.344       .  A
N1194      N1195   1.326       .  A
N1195      C1196   1.351       .  A
C1196      C1197   1.386       .  A
C1196      H1199   1.082       .  S
C1197      C1198   1.382       .  A
C1198      H1200   1.082       .  S
N1201      C1205   1.350       .  A
N1201      N1202   1.319       .  A
N1201     Cu1209   2.097       .  S
N1202      C1203   1.342       .  A
N1202     Cu1208   2.046       .  S
C1203      C1204   1.378       .  A
C1203      H1206   1.082       .  S
C1204      C1205   1.391       .  A
C1205      H1207   1.082       .  S
Cu1208     N1211   2.046       .  S
Cu1209     N1219   2.099       .  S
Cu1210     N1212   2.096       .  S
Cu1210     N1218   2.098       .  S
N1211      C1215   1.337       .  A
N1211      N1212   1.321       .  A
N1212      C1213   1.352       .  A
C1213      C1214   1.390       .  A
C1213      H1216   1.082       .  S
C1214      C1314   1.479       .  S
C1214      C1215   1.379       .  A
C1215      H1217   1.082       .  S
N1218      C1222   1.351       .  A
N1218      N1219   1.327       .  A
N1219      C1220   1.346       .  A
C1220      C1221   1.384       .  A
C1220      H1223   1.082       .  S
C1221      C1222   1.385       .  A
C1221      C1245   1.480       .  S
C1222      H1224   1.082       .  S
N1225      C1229   1.352       .  A
N1225      N1226   1.323       .  A
N1225     Cu1233   2.105       .  S
N1226      C1227   1.342       .  A
N1226     Cu1232   2.061   1_655  S
C1227      C1228   1.382       .  A
C1227      H1230   1.082       .  S
C1228      C1250   1.483       .  S
C1228      C1229   1.389       .  A
C1229      H1231   1.082       .  S
Cu1232     N1235   2.060       .  S
Cu1233     N1243   2.106       .  S
Cu1234     N1236   2.074   1_655  S
Cu1234     N1242   2.075       .  S
N1235      C1239   1.344       .  A
N1235      N1236   1.320       .  A
N1236      C1237   1.345       .  A
C1237      C1238   1.384       .  A
C1237      H1240   1.082       .  S
C1238      C1239   1.381       .  A
C1239      H1241   1.082       .  S
N1242      C1246   1.344       .  A
N1242      N1243   1.324       .  A
N1243      C1244   1.352       .  A
C1244      C1245   1.389       .  A
C1244      H1247   1.082       .  S
C1245      C1246   1.381       .  A
C1246      H1248   1.082       .  S
C1249      C1250   1.347   1_556  D
C1249      H1251   1.086       .  S
C1250      H1252   1.086       .  S
C1253      C1254   1.344       .  D
C1253      H1255   1.086       .  S
C1254      H1256   1.087       .  S
C1257      C1258   1.339   1_545  D
C1257      H1259   1.087   1_545  S
C1258      H1260   1.087   1_565  S
C1261      C1262   1.343       .  D
C1261      H1263   1.086       .  S
C1262      H1264   1.086       .  S
C1265      C1266   1.345       .  D
C1265      H1267   1.086       .  S
C1266      H1268   1.086       .  S
C1269      C1270   1.345   1_455  D
C1269      H1271   1.086       .  S
C1270      H1272   1.086       .  S
C1273      C1274   1.347       .  D
C1273      H1275   1.087       .  S
C1274      H1276   1.086       .  S
C1277      C1278   1.346       .  D
C1277      H1279   1.086       .  S
C1278      H1280   1.087       .  S
C1281      C1282   1.347       .  D
C1281      H1283   1.086       .  S
C1282      H1284   1.087       .  S
C1285      C1286   1.347       .  D
C1285      H1287   1.087       .  S
C1286      H1288   1.086       .  S
C1289      C1290   1.346       .  D
C1289      H1291   1.087       .  S
C1290      H1292   1.086       .  S
C1293      C1294   1.341       .  D
C1293      H1295   1.086       .  S
C1294      H1296   1.087       .  S
C1297      C1298   1.340   1_565  D
C1297      H1299   1.087   1_565  S
C1298      H1300   1.087   1_545  S
C1301      C1302   1.345       .  D
C1301      H1303   1.087   1_556  S
C1302      H1304   1.086       .  S
C1305      C1306   1.349       .  D
C1305      H1307   1.087       .  S
C1306      H1308   1.086       .  S
C1309      C1310   1.347       .  D
C1309      H1311   1.087       .  S
C1310      H1312   1.086       .  S
C1313      C1314   1.347       .  D
C1313      H1315   1.087       .  S
C1314      H1316   1.086       .  S
C1317      C1318   1.346       .  D
C1317      H1319   1.087       .  S
C1318      H1320   1.086       .  S
C1321      C1322   1.348       .  D
C1321      H1323   1.087       .  S
C1322      H1324   1.086       .  S
C1325      C1326   1.345       .  D
C1325      H1327   1.087       .  S
C1326      H1328   1.086       .  S
C1329      C1330   1.346       .  D
C1329      H1331   1.086       .  S
C1330      H1332   1.086       .  S
C1333      C1334   1.344       .  D
C1333      H1335   1.087       .  S
C1334      H1336   1.086       .  S
C1337      C1338   1.347       .  D
C1337      H1339   1.087       .  S
C1338      H1340   1.086       .  S
C1341      C1342   1.346       .  D
C1341      H1343   1.086       .  S
C1342      H1344   1.087       .  S
C1345      C1346   1.346       .  D
C1345      H1347   1.087       .  S
C1346      H1348   1.086       .  S
C1349      C1350   1.346       .  D
C1349      H1351   1.087       .  S
C1350      H1352   1.086       .  S
C1353      C1354   1.340       .  D
C1353      H1355   1.086       .  S
C1354      H1356   1.087       .  S
C1357      C1358   1.347       .  D
C1357      H1359   1.087       .  S
C1358      H1360   1.086       .  S
C1361      C1362   1.347       .  D
C1361      H1363   1.087       .  S
C1362      H1364   1.086       .  S
C1365      C1366   1.341       .  D
C1365      H1367   1.086       .  S
C1366      H1368   1.087       .  S
C1369      C1370   1.346       .  D
C1369      H1371   1.087       .  S
C1370      H1372   1.086       .  S
C1373      C1374   1.343   1_655  D
C1373      H1375   1.087   1_656  S
C1374      H1376   1.086   1_455  S
C1377      C1378   1.345       .  D
C1377      H1379   1.086       .  S
C1378      H1380   1.086       .  S
C1381      C1382   1.347       .  D
C1381      H1383   1.087       .  S
C1382      H1384   1.086       .  S
C1385      C1386   1.339       .  D
C1385      H1387   1.086       .  S
C1386      H1388   1.087       .  S
C1389      C1390   1.344   1_556  D
C1389      H1391   1.087   1_556  S
C1390      H1392   1.086   1_554  S
C1393      C1394   1.344       .  D
C1393      H1395   1.087       .  S
C1394      H1396   1.086       .  S
C1397      C1398   1.345       .  D
C1397      H1399   1.086       .  S
C1398      H1400   1.086       .  S
C1401      C1402   1.347       .  D
C1401      H1403   1.087       .  S
C1402      H1404   1.086       .  S
C1405      C1406   1.345       .  D
C1405      H1407   1.086       .  S
C1406      H1408   1.087       .  S
C1409      C1410   1.347       .  D
C1409      H1411   1.086       .  S
C1410      H1412   1.087       .  S
C1413      C1414   1.347       .  D
C1413      H1415   1.086       .  S
C1414      H1416   1.087       .  S
C1417      C1418   1.341       .  D
C1417      H1419   1.086       .  S
C1418      H1420   1.087       .  S
C1421      C1422   1.346       .  D
C1421      H1423   1.088       .  S
C1422      H1424   1.086       .  S
C1425      C1426   1.345       .  D
C1425      H1427   1.087       .  S
C1426      H1428   1.086       .  S
C1429      C1430   1.339       .  D
C1429      H1431   1.087       .  S
C1430      H1432   1.087       .  S
C1433      C1434   1.344       .  D
C1433      H1435   1.087       .  S
C1434      H1436   1.086       .  S
C1437      C1438   1.347       .  D
C1437      H1439   1.087       .  S
C1438      H1440   1.086       .  S
