geometry optimzed in LAMMPS
_audit_creation_date              2020-11-30 
_audit_creation_method            'lammps2cif' 
_symmetry_space_group_name_H-M    'P1' 
_symmetry_Int_Tables_number       1 
_symmetry_cell_setting            triclinic 
loop_ 
_symmetry_equiv_pos_as_xyz 
  x,y,z 
_cell_length_a                    31.1115509 
_cell_length_b                    31.111841649368593 
_cell_length_c                    31.35532736492767 
_cell_angle_alpha                 90.0308104023493 
_cell_angle_beta                  86.47685389723779 
_cell_angle_gamma                 86.40956536602937 
loop_ 
_atom_site_label 
_atom_site_type_symbol 
_atom_site_fract_x 
_atom_site_fract_y 
_atom_site_fract_z 
_atom_site_charge 
O1          O  0.52590905  0.40169657  0.06773016    -0.75500
O2          O  0.48466787  0.44385569  0.11288246    -0.54400
C3          C  0.50117740  0.40632194  0.10142985     0.78200
O4          O  0.62229207  0.47798753  0.91576161    -0.60100
O5          O  0.57595274  0.47014550  0.86289403    -0.53100
C6          C  0.61416312  0.47176841  0.87675066     0.70200
O7          O  0.61515288  0.49623032  0.05521707    -0.74700
O8          O  0.55980000  0.51301573  0.10508377    -0.55200
C9          C  0.60033048  0.50717596  0.09300587     0.76200
O10         O  0.50673503  0.36304902  0.93459105    -0.59800
O11         O  0.50723599  0.40481094  0.87470544    -0.52900
C12         C  0.50898863  0.36801786  0.89392681     0.72800
Zr13       Zr  0.49577483  0.40623210  0.99879016     2.54700
O14         O  0.52650658  0.33365975  0.01078981    -0.80400
O15         O  0.42971777  0.37073793  0.01770492    -0.93800
Zr16       Zr  0.58722236  0.48648226  0.98589713     2.64700
O17         O  0.63560139  0.42254621  0.99294919    -0.98800
O18         O  0.64484250  0.53599966  0.97993407    -0.80800
O19         O  0.53928025  0.45309266  0.03425555    -0.84200
O20         O  0.54529069  0.43849285  0.95013637    -2.18900
O21         O  0.38226191  0.48892092  0.91463216    -0.67600
O22         O  0.43679173  0.47011635  0.86456203    -0.52100
C23         C  0.39643858  0.47647242  0.87713690     0.71200
O24         O  0.49587713  0.62508843  0.03572670    -0.60500
O25         O  0.49255875  0.58179330  0.09455229    -0.52400
C26         C  0.49330304  0.61896872  0.07639966     0.73000
O27         O  0.53659284  0.58448729  0.89940394    -0.71900
O28         O  0.50031858  0.54501653  0.85627461    -0.50500
C29         C  0.51492442  0.58126481  0.86652720     0.74400
O30         O  0.37401522  0.52260929  0.05071929    -0.67200
O31         O  0.42025953  0.52577846  0.10434599    -0.54400
C32         C  0.38228332  0.52991021  0.08942794     0.72800
Zr33       Zr  0.40984281  0.50104266  0.98344157     2.77500
O34         O  0.35572262  0.55876712  0.97028047    -0.97900
O35         O  0.35694811  0.44753494  0.99737592    -0.78800
Zr36       Zr  0.50137995  0.58221935  0.97018471     2.70100
O37         O  0.44341792  0.62953331  0.94405256    -0.80000
O38         O  0.54451301  0.64505628  0.96704322    -0.99100
Zr39       Zr  0.49237915  0.50828993  0.06846567     2.21500
Zr40       Zr  0.50410367  0.47954292  0.90034273     2.11100
O41         O  0.45725663  0.53548981  0.93474792    -2.47800
O42         O  0.45208276  0.54926018  0.01838596    -0.79800
O43         O  0.45509797  0.44585028  0.94919837    -0.72000
O44         O  0.54190061  0.54206190  0.01959674    -2.33000
O45         O  0.44829970  0.45980777  0.03363458    -2.29200
O46         O  0.54776278  0.52721570  0.93645822    -0.73800
H47         H  0.56467930  0.41676151  0.93569434     0.78200
H48         H  0.55919916  0.56126257  0.03424552     0.79300
H49         H  0.44050671  0.55120901  0.91429690     0.81500
H50         H  0.42842366  0.44706276  0.05402803     0.79200
H51         H  0.67173635  0.51718982  0.97683223     0.42200
H52         H  0.57329265  0.63419682  0.95493890     0.41200
H53         H  0.45789282  0.65430803  0.93122216     0.40800
H54         H  0.32822126  0.54838370  0.98265830     0.38800
H55         H  0.36679588  0.42319906  0.97809669     0.41900
H56         H  0.43375858  0.35884950  0.04653929     0.36700
H57         H  0.55776298  0.33710248  0.01279600     0.42800
H58         H  0.66250569  0.43353821  0.00277227     0.39200
H59         H  0.36216837  0.58256657  0.98940243     0.44100
H60         H  0.43133313  0.34513985  0.99876260     0.42900
H61         H  0.62313388  0.40716877  0.01797361     0.43000
H62         H  0.53256356  0.66347836  0.94432332     0.43400
N63         N  0.19186690  0.57012405  0.19804072    -0.03700
C64         C  0.18223922  0.59031668  0.23656066    -0.01100
C65         C  0.20422947  0.62765896  0.23853351    -0.24000
C66         C  0.23055575  0.62882842  0.20229700    -0.24200
C67         C  0.22424244  0.59230520  0.17923636    -0.01200
H68         H  0.20630671  0.64876474  0.26559155     0.12600
H69         H  0.25651548  0.65017156  0.19689247     0.12600
N70         N  0.77343837  0.53181567  0.20862580    -0.03700
C71         C  0.78183302  0.53836482  0.25029667    -0.01100
C72         C  0.74732590  0.55999262  0.27228013    -0.24000
C73         C  0.71582630  0.56623039  0.24435804    -0.24200
C74         C  0.73184368  0.54830520  0.20573104    -0.01200
H75         H  0.74444662  0.56786212  0.30601622     0.12600
H76         H  0.68330180  0.57919313  0.25266346     0.12600
N77         N  0.21176083  0.45732316  0.78162474    -0.03700
C78         C  0.24974922  0.43317362  0.78552760    -0.01100
C79         C  0.25850315  0.40617119  0.75057944    -0.24000
C80         C  0.22702616  0.41526551  0.72309246    -0.24200
C81         C  0.19941622  0.44722800  0.74185907    -0.01200
H82         H  0.28754866  0.38594003  0.74306380     0.12600
H83         H  0.22673587  0.40302570  0.69078435     0.12600
N84         N  0.81179615  0.44478873  0.78461258    -0.03700
C85         C  0.77904314  0.41846496  0.79409468    -0.01100
C86         C  0.78564080  0.38022703  0.77145474    -0.24000
C87         C  0.81981333  0.38536793  0.74299895    -0.24200
C88         C  0.83211343  0.42695359  0.74847870    -0.01200
H89         H  0.76471926  0.35376734  0.77123800     0.12600
H90         H  0.82858351  0.36449730  0.71578961     0.12600
N91         N  0.99110715  0.51712324  0.06211621    -0.36800
N92         N  0.06341653  0.51138331  0.99647193    -0.57400
N93         N  0.00084420  0.50339958  0.92926051    -0.36800
N94         N  0.92937446  0.50391994  0.99572955    -0.57400
C95         C  0.02468877  0.51987228  0.08769606     0.26800
C96         C  0.95421797  0.51465308  0.08749687     0.26800
C97         C  0.03868014  0.49641536  0.90537941     0.26800
C98         C  0.96832506  0.49200370  0.90519844     0.26800
C99         C  0.08553215  0.52245874  0.03060642     0.35400
C100        C  0.09074710  0.51324164  0.96098384     0.35400
C101        C  0.90075075  0.50891610  0.03022662     0.35400
C102        C  0.90616706  0.49997147  0.96068442     0.35400
C103        C  0.00872645  0.51883426  0.12998138    -0.22100
C104        C  0.96471589  0.51611698  0.12986582    -0.22100
C105        C  0.02969989  0.48129428  0.86539876    -0.22100
C106        C  0.98573570  0.47879999  0.86522723    -0.22100
C107        C  0.12716896  0.53132720  0.01641372    -0.23200
C108        C  0.13048840  0.52529048  0.97279158    -0.23200
C109        C  0.85915670  0.50765362  0.01674680    -0.23200
C110        C  0.86258820  0.50210578  0.97309541    -0.23200
C111        C  0.06909849  0.52496126  0.07442737    -0.18500
C112        C  0.91107181  0.51292409  0.07397095    -0.18500
C113        C  0.92330599  0.49269221  0.91775163    -0.18500
C114        C  0.08121639  0.50327880  0.91804773    -0.18500
H115        H  0.02670714  0.52029641  0.15834476     0.14400
H116        H  0.94305529  0.51579476  0.15816822     0.14400
H117        H  0.05237899  0.47230026  0.83890062     0.14400
H118        H  0.96865112  0.46779402  0.83864807     0.14400
H119        H  0.15258410  0.54174598  0.03529112     0.12700
H120        H  0.15887454  0.52997977  0.95201367     0.12700
H121        H  0.82919972  0.50989615  0.03626795     0.12700
H122        H  0.83590552  0.49959483  0.95283926     0.12700
H123        H  0.99283489  0.51970744  0.02928150     0.25900
H124        H  0.99726854  0.51771139  0.95916741     0.25900
O125        O  0.07875350  0.49876410  0.37650972    -0.75500
O126        O  0.12305051  0.51555603  0.42895995    -0.54400
C127        C  0.11429732  0.51089262  0.38931181     0.78200
O128        O  0.92205670  0.62339669  0.46640930    -0.60100
O129        O  0.87502849  0.57963962  0.49936997    -0.53100
C130        C  0.88761015  0.61727993  0.48913854     0.70200
O131        O  0.06013813  0.62951139  0.49170439    -0.74700
O132        O  0.11495509  0.57862591  0.50099423    -0.55200
C133        C  0.09954020  0.61818316  0.49833994     0.76200
O134        O  0.93956924  0.49880509  0.37054011    -0.59800
O135        O  0.88087396  0.50653833  0.41831677    -0.52900
C136        C  0.89871473  0.50321095  0.37989461     0.72800
Zr137      Zr  0.00663307  0.49566100  0.40652385     2.54700
O138        O  0.01177181  0.54092134  0.34327718    -0.80400
O139        O  0.01502462  0.42699701  0.36879398    -0.93800
Zr140      Zr  0.99324976  0.59576032  0.48302828     2.64700
O141        O  0.00573783  0.63661357  0.41772446    -0.98800
O142        O  0.97762277  0.65757041  0.53031231    -0.80800
O143        O  0.04227934  0.54613764  0.44631225    -0.84200
O144        O  0.95754853  0.54655971  0.44198338    -2.18900
O145        O  0.93372559  0.38561103  0.49689087    -0.67600
O146        O  0.88098425  0.43683869  0.48113530    -0.52100
C147        C  0.89591592  0.39741696  0.48553407     0.71200
O148        O  0.05216451  0.50952426  0.61705288    -0.60500
O149        O  0.11130135  0.50844699  0.57009710    -0.52400
C150        C  0.09313975  0.50687941  0.60836294     0.73000
O151        O  0.90943657  0.54123375  0.59352479    -0.71900
O152        O  0.86771789  0.50123361  0.55643342    -0.50500
C153        C  0.87885324  0.51584816  0.59232328     0.74400
O154        O  0.07164103  0.39107818  0.51942174    -0.67200
O155        O  0.12345092  0.43993607  0.51053957    -0.54400
C156        C  0.11049150  0.40214825  0.51985249     0.72800
Zr157      Zr  0.00089056  0.41898956  0.50377504     2.77500
O158        O  0.99313935  0.37246022  0.56596960    -0.97900
O159        O  0.01439260  0.35958562  0.45305229    -0.78800
Zr160      Zr  0.98490486  0.51728677  0.58197133     2.70100
O161        O  0.96686373  0.46383451  0.63590157    -0.80000
O162        O  0.98519037  0.57208898  0.63740934    -0.99100
Zr163      Zr  0.08192258  0.50843018  0.49870209     2.21500
Zr164      Zr  0.91107579  0.50730849  0.48904993     2.11100
O165        O  0.95029092  0.46684743  0.54118223    -2.47800
O166        O  0.03500666  0.46884155  0.54476639    -0.79800
O167        O  0.96119090  0.45693282  0.45255213    -0.72000
O168        O  0.03081971  0.55752681  0.53643542    -2.33000
O169        O  0.04777441  0.45699758  0.45683986    -2.29200
O170        O  0.94751180  0.55720009  0.53017191    -0.73800
H171        H  0.94155269  0.56222097  0.42097356     0.78200
H172        H  0.04498274  0.57695003  0.55404630     0.79300
H173        H  0.93156496  0.45005041  0.55938873     0.81500
H174        H  0.06891641  0.43741777  0.44230790     0.79200
H175        H  0.96813400  0.68129484  0.51135536     0.42200
H176        H  0.96022653  0.59237427  0.63241915     0.41200
H177        H  0.99433523  0.44686179  0.63977989     0.40800
H178        H  0.01260413  0.38365329  0.58661161     0.38800
H179        H  0.03866277  0.34158096  0.46394853     0.41900
H180        H  0.02796049  0.43401151  0.34020117     0.36700
H181        H  0.99230561  0.56666206  0.35044701     0.42800
H182        H  0.00712767  0.66673110  0.42747249     0.39200
H183        H  0.96377593  0.37986301  0.57886638     0.44100
H184        H  0.98524247  0.41978148  0.36360071     0.42900
H185        H  0.03568093  0.62770801  0.40733014     0.43000
H186        H  0.97687264  0.55713851  0.66425698     0.43400
N187        N  0.45926201  0.79288517  0.20763178    -0.03700
C188        C  0.44019465  0.79898904  0.24788494    -0.01100
C189        C  0.41213522  0.76694075  0.25741905    -0.24000
C190        C  0.41533414  0.73929897  0.22353590    -0.24200
C191        C  0.44469932  0.75531104  0.19388726    -0.01200
H192        H  0.39559174  0.76065956  0.28793077     0.12600
H193        H  0.40151115  0.70824842  0.22263278     0.12600
N194        N  0.46708844  0.21429252  0.19158541    -0.03700
C195        C  0.45695807  0.20329554  0.23304738    -0.01100
C196        C  0.42849409  0.23372010  0.25303347    -0.24000
C197        C  0.42191015  0.26574178  0.22451194    -0.24200
C198        C  0.44629019  0.25413198  0.18732213    -0.01200
H199        H  0.41775571  0.23486899  0.28656264     0.12600
H200        H  0.40552084  0.29668879  0.23241690     0.12600
N201        N  0.54986677  0.18779980  0.77243219    -0.03700
C202        C  0.56457407  0.22498941  0.78718008    -0.01100
C203        C  0.59624875  0.24006029  0.75959774    -0.24000
C204        C  0.60065838  0.21258642  0.72565862    -0.24200
C205        C  0.57095870  0.18152302  0.73304681    -0.01200
H206        H  0.61070361  0.27071992  0.76148869     0.12600
H207        H  0.61908537  0.21882266  0.69617366     0.12600
N208        N  0.47629146  0.78076925  0.78858831    -0.03700
C209        C  0.45469882  0.74378003  0.79315884    -0.01100
C210        C  0.42496131  0.74174978  0.76214094    -0.24000
C211        C  0.42992017  0.77637349  0.73626217    -0.24200
C212        C  0.46223347  0.79893155  0.75197466    -0.01200
H213        H  0.40553318  0.71530955  0.75517156     0.12600
H214        H  0.41521974  0.78170727  0.70614398     0.12600
N215        N  0.50144089  0.99749344  0.05794806    -0.36800
N216        N  0.49948052  0.92607126  0.99648172    -0.57400
N217        N  0.50801252  0.98686134  0.92501010    -0.36800
N218        N  0.50384027  0.05914731  0.98607950    -0.57400
C219        C  0.48953176  0.96515907  0.08465289     0.26800
C220        C  0.49273534  0.03557520  0.07922803     0.26800
C221        C  0.49844574  0.95089480  0.90374341     0.26800
C222        C  0.50261219  0.02092037  0.89825221     0.26800
C223        C  0.50081649  0.90284705  0.03317337     0.35400
C224        C  0.50393736  0.89745035  0.96345023     0.35400
C225        C  0.50999381  0.08607567  0.01911678     0.35400
C226        C  0.51475708  0.08026965  0.94931613     0.35400
C227        C  0.47408423  0.98313437  0.12359032    -0.22100
C228        C  0.47570670  0.02715382  0.12004087    -0.22100
C229        C  0.48672017  0.96245559  0.86310058    -0.22100
C230        C  0.48934128  0.00634319  0.85967177    -0.22100
C231        C  0.50593891  0.85929879  0.02315112    -0.23200
C232        C  0.50833127  0.85596026  0.97935564    -0.23200
C233        C  0.52480693  0.12431091  0.00318215    -0.23200
C234        C  0.52808995  0.12057558  0.95933336    -0.23200
C235        C  0.49325962  0.91984512  0.07551866    -0.18500
C236        C  0.50053483  0.07775032  0.06344062    -0.18500
C237        C  0.51132499  0.06450594  0.90679683    -0.18500
C238        C  0.50098069  0.90769898  0.91927397    -0.18500
H239        H  0.46247515  0.96655218  0.15188782     0.14400
H240        H  0.46518155  0.05031975  0.14485957     0.14400
H241        H  0.47701220  0.94152017  0.83833612     0.14400
H242        H  0.48208457  0.02536410  0.83183115     0.14400
H243        H  0.50681379  0.83236984  0.04493503     0.12700
H244        H  0.51192690  0.82611987  0.96138473     0.12700
H245        H  0.53283089  0.15199172  0.02131591     0.12700
H246        H  0.53927779  0.14490942  0.93743492     0.12700
H247        H  0.51781093  0.99363195  0.02817068     0.25900
H248        H  0.52153490  0.98760185  0.95445855     0.25900
N249        N  0.22041430  0.78882301  0.54061612    -0.03700
C250        C  0.21077094  0.74705687  0.54814738    -0.01100
C251        C  0.24205828  0.72589168  0.57104699    -0.24000
C252        C  0.27298261  0.75406283  0.57651779    -0.24200
C253        C  0.25994423  0.79209492  0.55685443    -0.01200
H254        H  0.24402521  0.69212762  0.57953107     0.12600
H255        H  0.30376717  0.74584354  0.58965652     0.12600
N256        N  0.79857620  0.21842141  0.43968455    -0.03700
C257        C  0.75861024  0.20926024  0.42761792    -0.01100
C258        C  0.74269803  0.24052553  0.40050976    -0.24000
C259        C  0.77202388  0.27105499  0.39702557    -0.24200
C260        C  0.80552626  0.25774425  0.42199562    -0.01200
H261        H  0.71083689  0.24314655  0.38827430     0.12600
H262        H  0.76658370  0.30206630  0.38201720     0.12600
N263        N  0.21182532  0.21300852  0.55056584    -0.03700
C264        C  0.25148515  0.20192241  0.56519565    -0.01100
C265        C  0.25734188  0.22376853  0.60261158    -0.24000
C266        C  0.22241191  0.25196807  0.60950589    -0.24200
C267        C  0.19629187  0.24672958  0.57600850    -0.01200
H268        H  0.28623521  0.22326208  0.62018327     0.12600
H269        H  0.22020226  0.27825845  0.63233316     0.12600
N270        N  0.80667299  0.80694532  0.56420621    -0.03700
C271        C  0.82355260  0.76979576  0.58109248    -0.01100
C272        C  0.80040994  0.75995835  0.61854177    -0.24000
C273        C  0.76540651  0.78855753  0.62226265    -0.24200
C274        C  0.76823382  0.81519579  0.58698482    -0.01200
H275        H  0.80354256  0.73037056  0.63656267     0.12600
H276        H  0.73755310  0.78461828  0.64395408     0.12600
N277        N  0.01124631  0.94438294  0.51877408    -0.36800
N278        N  0.07647429  0.00913202  0.51613865    -0.57400
N279        N  0.00998397  0.07721454  0.49906885    -0.36800
N280        N  0.94321900  0.01328440  0.51028603    -0.57400
C281        C  0.04671885  0.91974718  0.52913429     0.26800
C282        C  0.97577610  0.92267191  0.53067014     0.26800
C283        C  0.04260384  0.10161936  0.50996361     0.26800
C284        C  0.97289745  0.10296052  0.50057963     0.26800
C285        C  0.10324367  0.97280962  0.51418637     0.35400
C286        C  0.10169013  0.04303171  0.51006438     0.35400
C287        C  0.91940474  0.97806416  0.50903420     0.35400
C288        C  0.91952289  0.04661817  0.49338451     0.35400
C289        C  0.03364773  0.88179806  0.54747530    -0.22100
C290        C  0.98918910  0.88379629  0.54884165    -0.22100
C291        C  0.02581322  0.14341004  0.51805637    -0.22100
C292        C  0.98222276  0.14431047  0.51183989    -0.22100
C293        C  0.14551756  0.98386714  0.50656951    -0.23200
C294        C  0.14455872  0.02804725  0.50423328    -0.23200
C295        C  0.88053236  0.98920917  0.49145986    -0.23200
C296        C  0.88084399  0.03213419  0.48104014    -0.23200
C297        C  0.09068996  0.92998505  0.52199480    -0.18500
C298        C  0.93185819  0.93585478  0.52358737    -0.18500
C299        C  0.93089765  0.09048435  0.49143977    -0.18500
C300        C  0.08714312  0.08748427  0.51230236    -0.18500
H301        H  0.05402235  0.85548792  0.55922638     0.14400
H302        H  0.96915955  0.85911857  0.56171788     0.14400
H303        H  0.04295952  0.17055008  0.52794732     0.14400
H304        H  0.95971750  0.17215335  0.51617105     0.14400
H305        H  0.17429958  0.96242162  0.50358859     0.12700
H306        H  0.17238945  0.04698920  0.49885306     0.12700
H307        H  0.85494559  0.96830714  0.48572966     0.12700
H308        H  0.85529081  0.05044900  0.46596912     0.12700
H309        H  0.01163490  0.97256149  0.50107787     0.25900
H310        H  0.01312666  0.04564366  0.48789090     0.25900
O311        O  0.38886071  0.93479172  0.49121531    -0.75500
O312        O  0.43926308  0.88270063  0.50990055    -0.54400
C313        C  0.40003742  0.89688629  0.50407516     0.78200
O314        O  0.51621337  0.05372299  0.36028047    -0.60100
O315        O  0.50989938  0.11246176  0.40463671    -0.53100
C316        C  0.51156060  0.09441673  0.36727252     0.70200
O317        O  0.52449569  0.91492270  0.37560413    -0.74700
O318        O  0.50281193  0.87241871  0.43143355    -0.55200
C319        C  0.51001649  0.88029494  0.39097131     0.76200
O320        O  0.39065607  0.07345830  0.47930047    -0.59800
O321        O  0.44011046  0.12402224  0.48528313    -0.52900
C322        C  0.40087734  0.11220752  0.48431062     0.72800
Zr323      Zr  0.42275068  0.00226500  0.48509371     2.54700
O324        O  0.37468979  0.00195148  0.42670434    -0.80400
O325        O  0.36529324  0.01156692  0.54145595    -0.93800
Zr326      Zr  0.52033316  0.98776938  0.40031462     2.64700
O327        O  0.47144249  0.98191101  0.34300101    -0.98800
O328        O  0.58717560  0.98305112  0.35545710    -0.80800
O329        O  0.47063583  0.95273921  0.44674370    -0.84200
O330        O  0.47055077  0.03721316  0.43736037    -2.18900
O331        O  0.47868185  0.08530392  0.58591367    -0.67600
O332        O  0.51888951  0.12572626  0.54236425    -0.52100
C333        C  0.50362362  0.11599405  0.57996269     0.71200
O334        O  0.62893783  0.92298692  0.50646052    -0.60500
O335        O  0.57829914  0.87252198  0.50943026    -0.52400
C336        C  0.61691647  0.88478488  0.51264788     0.73000
O337        O  0.63245557  0.06068225  0.48058357    -0.71900
O338        O  0.58227580  0.11578303  0.46991168    -0.50500
C339        C  0.62161974  0.10014132  0.47300774     0.74400
O340        O  0.50485358  0.94467168  0.61594804    -0.67200
O341        O  0.50858672  0.88551531  0.57244414    -0.54400
C342        C  0.50664428  0.90384231  0.60977141     0.72800
Zr343      Zr  0.50338642  0.01054016  0.57556310     2.77500
O344        O  0.55944418  0.02598404  0.62318428    -0.97900
O345        O  0.45084255  0.01517183  0.63642429    -0.78800
Zr346      Zr  0.59971365  0.99333994  0.48892975     2.70100
O347        O  0.65353832  0.00223593  0.54086983    -0.80000
O348        O  0.65388843  0.97892274  0.43037867    -0.99100
Zr349      Zr  0.50999667  0.91357609  0.49854759     2.21500
Zr350      Zr  0.51147451  0.08376704  0.47753845     2.11100
O351        O  0.55302221  0.04373902  0.52802395    -2.47800
O352        O  0.55135437  0.96022889  0.53775945    -0.79800
O353        O  0.46227018  0.04850805  0.52531672    -0.72000
O354        O  0.56012287  0.94657414  0.44959373    -2.33000
O355        O  0.46176056  0.96447262  0.53715550    -2.29200
O356        O  0.56089123  0.03394099  0.43883005    -0.73800
H357        H  0.45337396  0.05334551  0.41756167     0.78200
H358        H  0.57930630  0.92508828  0.43508723     0.79300
H359        H  0.57045860  0.06197176  0.54381613     0.81500
H360        H  0.44235203  0.95042774  0.55709891     0.79200
H361        H  0.60346546  0.95695756  0.36535297     0.42200
H362        H  0.65803304  0.00727568  0.41689973     0.41200
H363        H  0.64292473  0.98659723  0.56649928     0.40800
H364        H  0.54348572  0.03764922  0.64938671     0.38800
H365        H  0.42330644  0.02467910  0.62408489     0.41900
H366        H  0.37498990  0.03397852  0.56046839     0.36700
H367        H  0.38721954  0.97860909  0.40743570     0.42800
H368        H  0.49006383  0.97145586  0.31791391     0.39200
H369        H  0.57161665  0.99729290  0.63165335     0.44100
H370        H  0.36715598  0.98485669  0.55856329     0.42900
H371        H  0.45376756  0.95743544  0.35102531     0.43000
H372        H  0.68099229  0.97190626  0.44457049     0.43400
C373        C  0.72755127  0.83501699  0.52237657    -0.13600
C374        C  0.72832181  0.83172080  0.56704335     0.08600
C375        C  0.68927082  0.83902175  0.59200033    -0.13600
C376        C  0.65082903  0.85024369  0.57290266    -0.13600
C377        C  0.65066555  0.85549953  0.52860967     0.08600
C378        C  0.68917575  0.84735662  0.50340466    -0.13600
H379        H  0.75666757  0.82858942  0.50208095     0.12600
H380        H  0.68838241  0.83708171  0.62647851     0.12600
H381        H  0.62189804  0.85842402  0.59306427     0.12600
H382        H  0.68997423  0.85293723  0.46927058     0.10200
C383        C  0.87000031  0.83233141  0.51991686    -0.13600
C384        C  0.83459904  0.84094460  0.54964124     0.08600
C385        C  0.83041029  0.88223590  0.56890318    -0.13600
C386        C  0.86125700  0.91290131  0.56002489    -0.13600
C387        C  0.89728599  0.90368519  0.53126699     0.08600
C388        C  0.90051568  0.86323154  0.51064861    -0.13600
H389        H  0.87478372  0.80135749  0.50425682     0.12600
H390        H  0.80418770  0.89030837  0.59239378     0.12600
H391        H  0.85754459  0.94360263  0.57655699     0.12600
H392        H  0.92739855  0.85512864  0.48789525     0.12600
C393        C  0.33038938  0.19897574  0.54144529    -0.13600
C394        C  0.28906295  0.18305956  0.53818490     0.08600
C395        C  0.28475540  0.14944865  0.50946683    -0.13600
C396        C  0.32127105  0.12979700  0.48756035    -0.13600
C397        C  0.36312308  0.14283408  0.49431400     0.08600
C398        C  0.36700151  0.17900101  0.51990877    -0.13600
H399        H  0.33488405  0.22623460  0.56176897     0.12600
H400        H  0.25371928  0.13669812  0.50547088     0.12600
H401        H  0.31692326  0.10209256  0.46769543     0.12600
H402        H  0.39848748  0.18988899  0.52586122     0.12600
C403        C  0.15768965  0.18578527  0.50267490    -0.13600
C404        C  0.18262532  0.18074923  0.53856477     0.08600
C405        C  0.17595313  0.14495110  0.56512520    -0.13600
C406        C  0.14522690  0.11539102  0.55646282    -0.13600
C407        C  0.12012558  0.12015011  0.52068235     0.08600
C408        C  0.12708552  0.15571823  0.49366098    -0.13600
H409        H  0.16173584  0.21298562  0.48168410     0.12600
H410        H  0.19402284  0.14042552  0.59337748     0.12600
H411        H  0.14071365  0.08873872  0.57814049     0.12600
H412        H  0.10862383  0.16036501  0.46568225     0.12600
C413        C  0.73418027  0.13544728  0.44346717    -0.13600
C414        C  0.72831297  0.18003168  0.44870707     0.08600
C415        C  0.68796381  0.19802601  0.46540314    -0.13600
C416        C  0.65316608  0.17239337  0.47374239    -0.13600
C417        C  0.65832893  0.12800609  0.46656603     0.08600
C418        C  0.69964516  0.10958443  0.45289581    -0.13600
H419        H  0.76449577  0.12096007  0.42980531     0.12600
H420        H  0.68263275  0.23258000  0.46941610     0.12600
H421        H  0.62215181  0.18733774  0.48497523     0.12600
H422        H  0.70479193  0.07523104  0.44736117     0.12600
C423        C  0.87359801  0.18511960  0.43444030    -0.13600
C424        C  0.83192209  0.18817649  0.45513291     0.08600
C425        C  0.82369119  0.16017919  0.48950564    -0.13600
C426        C  0.85581541  0.12945331  0.50203656    -0.13600
C427        C  0.89698211  0.12530917  0.48019753     0.08600
C428        C  0.90546021  0.15420386  0.44663153    -0.13600
H429        H  0.88120206  0.20602514  0.40780784     0.12600
H430        H  0.79245737  0.16208993  0.50679390     0.12600
H431        H  0.84830192  0.10841573  0.52858776     0.12600
H432        H  0.93665724  0.15226831  0.42916072     0.12600
C433        C  0.32704549  0.82844053  0.57097785    -0.13600
C434        C  0.29168123  0.82482921  0.54544046     0.08600
C435        C  0.29209914  0.84600513  0.50582445    -0.13600
C436        C  0.32777487  0.86890335  0.49169952    -0.13600
C437        C  0.36414224  0.86972307  0.51627362     0.08600
C438        C  0.36308688  0.84985076  0.55624743    -0.13600
H439        H  0.32753043  0.81342074  0.60208388     0.12600
H440        H  0.26582267  0.84347337  0.48506483     0.12600
H441        H  0.32738363  0.88528967  0.46123498     0.12600
H442        H  0.38980233  0.85180044  0.57662610     0.12600
C443        C  0.16105535  0.82507208  0.50058362    -0.13600
C444        C  0.18947806  0.82497356  0.53380706     0.08600
C445        C  0.18559576  0.86014877  0.56251421    -0.13600
C446        C  0.15400913  0.89402999  0.55856926    -0.13600
C447        C  0.12544909  0.89410636  0.52550848     0.08600
C448        C  0.12953399  0.85925342  0.49644192    -0.13600
H449        H  0.16320435  0.79871004  0.47787955     0.12600
H450        H  0.20643750  0.86083526  0.58888033     0.12600
H451        H  0.15148845  0.92005292  0.58172312     0.12600
H452        H  0.10805423  0.85842178  0.47060653     0.12600
C453        C  0.47922142  0.87144997  0.72462159    -0.13600
C454        C  0.48686297  0.82675554  0.72254558     0.08600
C455        C  0.50718740  0.80803090  0.68499587    -0.13600
C456        C  0.51563927  0.83301367  0.64861621    -0.13600
C457        C  0.50442992  0.87736232  0.64936008     0.08600
C458        C  0.48840621  0.89658825  0.68856075    -0.13600
H459        H  0.46301084  0.88649195  0.75288593     0.12600
H460        H  0.51293954  0.77337791  0.68265386     0.12600
H461        H  0.52896474  0.81736262  0.61945618     0.12600
H462        H  0.47998026  0.93085543  0.69066834     0.12600
C463        C  0.45783235  0.81281819  0.86047482    -0.13600
C464        C  0.48681144  0.80748834  0.82419119     0.08600
C465        C  0.52194352  0.83393621  0.82066424    -0.13600
C466        C  0.52744348  0.86525868  0.85209413    -0.13600
C467        C  0.49758168  0.87146966  0.88760231     0.08600
C468        C  0.46296773  0.84444263  0.89148636    -0.13600
H469        H  0.42977063  0.79391989  0.86372007     0.12600
H470        H  0.54443846  0.83115130  0.79292460     0.12600
H471        H  0.55438004  0.88560825  0.84807733     0.12600
H472        H  0.43908506  0.84869223  0.91801255     0.12600
C473        C  0.58028877  0.15347339  0.65792557    -0.13600
C474        C  0.55370681  0.15988178  0.69580799     0.08600
C475        C  0.50948684  0.15350773  0.69440568    -0.13600
C476        C  0.49250169  0.14109909  0.65611164    -0.13600
C477        C  0.51910709  0.13622806  0.61823467     0.08600
C478        C  0.56307992  0.14280297  0.61953588    -0.13600
H479        H  0.61459643  0.15753386  0.65764006     0.12600
H480        H  0.48786903  0.15915855  0.72250311     0.12600
H481        H  0.45854279  0.13529794  0.65600773     0.12600
H482        H  0.58459299  0.13777393  0.59121471     0.12600
C483        C  0.50194159  0.16390231  0.83372373    -0.13600
C484        C  0.53435905  0.15430304  0.80107590     0.08600
C485        C  0.55644715  0.11334054  0.80170881    -0.13600
C486        C  0.54828534  0.08417537  0.83521149    -0.13600
C487        C  0.51753930  0.09477770  0.86913638     0.08600
C488        C  0.49354729  0.13460084  0.86705436    -0.13600
H489        H  0.48376739  0.19469986  0.83417294     0.12600
H490        H  0.58186491  0.10477354  0.77751030     0.12600
H491        H  0.56714229  0.05371973  0.83539128     0.12600
H492        H  0.46895921  0.14356413  0.89195818     0.12600
C493        C  0.50160403  0.19077632  0.29471818    -0.13600
C494        C  0.48185722  0.17336541  0.25987132     0.08600
C495        C  0.47641323  0.12920467  0.25855074    -0.13600
C496        C  0.48868443  0.10319109  0.29258631    -0.13600
C497        C  0.50521108  0.12126041  0.32908344     0.08600
C498        C  0.51256800  0.16511957  0.32932990    -0.13600
H499        H  0.50531596  0.22511508  0.29664548     0.12600
H500        H  0.46015117  0.11540346  0.23272254     0.12600
H501        H  0.48248459  0.06935338  0.29151971     0.12600
H502        H  0.52533991  0.17982048  0.35679830     0.12600
C503        C  0.51352573  0.15115435  0.16088521    -0.13600
C504        C  0.48028548  0.18369729  0.15693875     0.08600
C505        C  0.45632782  0.18254306  0.12022287    -0.13600
C506        C  0.46383322  0.14916365  0.08971367    -0.13600
C507        C  0.49563492  0.11558888  0.09461067     0.08600
C508        C  0.52096781  0.11758348  0.13032986    -0.13600
H509        H  0.53333243  0.15114223  0.18804358     0.12600
H510        H  0.43022755  0.20653945  0.11604701     0.12600
H511        H  0.44364503  0.14875890  0.06280980     0.12600
H512        H  0.54604661  0.09260701  0.13502376     0.12600
C513        C  0.43333677  0.83013479  0.32199421    -0.13600
C514        C  0.45852535  0.82234011  0.28346394     0.08600
C515        C  0.50266284  0.82964313  0.28265287    -0.13600
C516        C  0.52087915  0.84461756  0.31933099    -0.13600
C517        C  0.49564808  0.85156144  0.35794210     0.08600
C518        C  0.45175494  0.84391340  0.35879395    -0.13600
H519        H  0.39910288  0.82539487  0.32383456     0.12600
H520        H  0.52322181  0.82323015  0.25395736     0.12600
H521        H  0.55447286  0.85213304  0.31726063     0.12600
H522        H  0.43101168  0.85139229  0.38720635     0.12600
C523        C  0.43632119  0.85603397  0.16474023    -0.13600
C524        C  0.46951075  0.82719183  0.17800614     0.08600
C525        C  0.51084660  0.82902380  0.15754722    -0.13600
C526        C  0.51894063  0.85970124  0.12529521    -0.13600
C527        C  0.48556666  0.88844276  0.11179717     0.08600
C528        C  0.44409147  0.88583351  0.13186979    -0.13600
H529        H  0.40386377  0.85435446  0.17895156     0.12600
H530        H  0.53663883  0.80632252  0.16616959     0.12600
H531        H  0.55109008  0.86035858  0.11008596     0.12600
H532        H  0.41749527  0.90670724  0.12172813     0.12600
C533        C  0.85992231  0.36189840  0.42892976    -0.13600
C534        C  0.87065118  0.36229762  0.47154908     0.08600
C535        C  0.86526453  0.32533602  0.49664259    -0.13600
C536        C  0.84656607  0.28955394  0.47995079    -0.13600
C537        C  0.83467969  0.28965635  0.43739333     0.08600
C538        C  0.84310708  0.32571189  0.41178967    -0.13600
H539        H  0.86597092  0.38916129  0.40839659     0.12600
H540        H  0.87503774  0.32444032  0.52921174     0.12600
H541        H  0.83999157  0.26272477  0.50078166     0.12600
H542        H  0.83529885  0.32660495  0.37861671     0.12600
C543        C  0.84591218  0.68911751  0.49028055    -0.13600
C544        C  0.86750667  0.65535291  0.51155085     0.08600
C545        C  0.87829045  0.66137115  0.55374013    -0.13600
C546        C  0.86716905  0.70016352  0.57489191    -0.13600
C547        C  0.84377346  0.73350628  0.55477282     0.08600
C548        C  0.83299895  0.72759655  0.51220255    -0.13600
H549        H  0.83875235  0.68553200  0.45714199     0.12600
H550        H  0.89666559  0.63630592  0.56998620     0.12600
H551        H  0.87572065  0.70368110  0.60762143     0.12600
H552        H  0.81386796  0.75228039  0.49627487     0.12600
C553        C  0.13372412  0.35435178  0.57700840    -0.13600
C554        C  0.14004867  0.36758070  0.53442993     0.08600
C555        C  0.16258168  0.33947173  0.50473845    -0.13600
C556        C  0.17889871  0.29881276  0.51763899    -0.13600
C557        C  0.17204347  0.28535930  0.56021954     0.08600
C558        C  0.14931742  0.31367119  0.58972742    -0.13600
H559        H  0.11474786  0.37484606  0.60001490     0.12600
H560        H  0.16611170  0.34833699  0.47136930     0.12600
H561        H  0.19768055  0.27834187  0.49456856     0.12600
H562        H  0.14408268  0.30443542  0.62286059     0.12600
C563        C  0.17105693  0.65228269  0.49139628    -0.13600
C564        C  0.12744983  0.65417555  0.50567129     0.08600
C565        C  0.10993648  0.69117792  0.52822976    -0.13600
C566        C  0.13608727  0.72420344  0.53892340    -0.13600
C567        C  0.18004775  0.72140424  0.52625298     0.08600
C568        C  0.19693111  0.68577037  0.50124693    -0.13600
H569        H  0.18527886  0.62460967  0.47349187     0.12600
H570        H  0.07632126  0.69344872  0.53972332     0.12600
H571        H  0.12261110  0.75041230  0.55930794     0.12600
H572        H  0.23107346  0.68250691  0.49178263     0.12600
C573        C  0.82005824  0.44555902  0.67178575    -0.13600
C574        C  0.84101435  0.45327162  0.70957640     0.08600
C575        C  0.86961611  0.48619205  0.70952455    -0.13600
C576        C  0.87887396  0.50923985  0.67206300    -0.13600
C577        C  0.86048536  0.49921145  0.63349892     0.08600
C578        C  0.82992006  0.46797695  0.63418011    -0.13600
H579        H  0.79653565  0.42140216  0.67092289     0.12600
H580        H  0.88627970  0.49290647  0.73779679     0.12600
H581        H  0.90250331  0.53324690  0.67279970     0.12600
H582        H  0.81493067  0.45956940  0.60529257     0.12600
C583        C  0.85183643  0.50019482  0.82134125    -0.13600
C584        C  0.83813589  0.45802530  0.81875330     0.08600
C585        C  0.85198884  0.42802421  0.84960701    -0.13600
C586        C  0.87862545  0.43963732  0.88181683    -0.13600
C587        C  0.89268169  0.48155875  0.88422610     0.08600
C588        C  0.87898828  0.51175188  0.85352059    -0.13600
H589        H  0.84167879  0.52409334  0.79835479     0.12600
H590        H  0.84256917  0.39515981  0.84838817     0.12600
H591        H  0.88892229  0.41556643  0.90460217     0.12600
H592        H  0.88949821  0.54424495  0.85437354     0.12600
C593        C  0.18945765  0.49260191  0.67756801    -0.13600
C594        C  0.17083986  0.47353087  0.71453647     0.08600
C595        C  0.12624453  0.46987239  0.71794893    -0.13600
C596        C  0.10104800  0.48307004  0.68422205    -0.13600
C597        C  0.12000581  0.49925917  0.64580269     0.08600
C598        C  0.16443772  0.50501094  0.64340510    -0.13600
H599        H  0.22408721  0.49498882  0.67391120     0.12600
H600        H  0.11132191  0.45423677  0.74541039     0.12600
H601        H  0.06687993  0.47803840  0.68734949     0.12600
H602        H  0.18007971  0.51758035  0.61465207     0.12600
C603        C  0.18096734  0.45067338  0.85640747    -0.13600
C604        C  0.18271469  0.47336893  0.81742011     0.08600
C605        C  0.15269519  0.50880860  0.81333188    -0.13600
C606        C  0.12116088  0.52006322  0.84654557    -0.13600
C607        C  0.11843785  0.49594911  0.88467665     0.08600
C608        C  0.14939194  0.46167449  0.88929632    -0.13600
H609        H  0.20290418  0.42285959  0.86076271     0.12600
H610        H  0.15308298  0.52740764  0.78420032     0.12600
H611        H  0.09784388  0.54671053  0.84188206     0.12600
H612        H  0.14805186  0.44219230  0.91790334     0.12600
C613        C  0.85697284  0.53817257  0.27347793    -0.13600
C614        C  0.81746579  0.51897747  0.27422192     0.08600
C615        C  0.80653090  0.49128378  0.30821658    -0.13600
C616        C  0.83289376  0.48560003  0.34259514    -0.13600
C617        C  0.87134663  0.50659746  0.34296329     0.08600
C618        C  0.88398538  0.53154469  0.30734655    -0.13600
H619        H  0.86535104  0.56077619  0.24852061     0.12600
H620        H  0.77560212  0.47696898  0.30986813     0.12600
H621        H  0.82277395  0.46573453  0.36927641     0.12600
H622        H  0.91364174  0.54805637  0.30695759     0.12600
C623        C  0.81117335  0.55674740  0.14208560    -0.13600
C624        C  0.80575064  0.52470859  0.17331806     0.08600
C625        C  0.83468502  0.48802521  0.17117867    -0.13600
C626        C  0.86803363  0.48355874  0.13850688    -0.13600
C627        C  0.87411936  0.51625812  0.10792807     0.08600
C628        C  0.84508561  0.55284760  0.11023897    -0.13600
H629        H  0.78987611  0.58566279  0.14329194     0.12600
H630        H  0.83155061  0.46296449  0.19489186     0.12600
H631        H  0.88972299  0.45491806  0.13756380     0.12600
H632        H  0.84893319  0.57868477  0.08745796     0.12600
C633        C  0.16062961  0.59120311  0.31559421    -0.13600
C634        C  0.16628007  0.56834405  0.27647109     0.08600
C635        C  0.16113904  0.52376029  0.27724126    -0.13600
C636        C  0.14902706  0.50321306  0.31561938    -0.13600
C637        C  0.14301676  0.52647296  0.35433921     0.08600
C638        C  0.15005485  0.57041887  0.35394576    -0.13600
H639        H  0.16326970  0.62561229  0.31694174     0.12600
H640        H  0.16580642  0.50483059  0.24816949     0.12600
H641        H  0.14209531  0.46954295  0.31476553     0.12600
H642        H  0.14345892  0.58960760  0.38274872     0.12600
C643        C  0.16648881  0.51833609  0.14561375    -0.13600
C644        C  0.15880002  0.55533311  0.17147500     0.08600
C645        C  0.12090015  0.58153314  0.16584579    -0.13600
C646        C  0.09220590  0.57164118  0.13475217    -0.13600
C647        C  0.09987814  0.53475556  0.10860803     0.08600
C648        C  0.13717570  0.50786101  0.11507357    -0.13600
H649        H  0.19567221  0.49799927  0.14852545     0.12600
H650        H  0.11446414  0.61088390  0.18433273     0.12600
H651        H  0.06414737  0.59329362  0.13061171     0.12600
H652        H  0.14411435  0.47913986  0.09573397     0.12600
C653        C  0.44483939  0.36416873  0.13808344    -0.13600
C654        C  0.48787237  0.36681332  0.12325877     0.08600
C655        C  0.51582009  0.32931486  0.12308928    -0.13600
C656        C  0.50165116  0.29069189  0.14050788    -0.13600
C657        C  0.45885091  0.28862099  0.15700979     0.08600
C658        C  0.43026056  0.32532442  0.15355534    -0.13600
H659        H  0.42212227  0.39190965  0.13666718     0.12600
H660        H  0.54890358  0.33020649  0.11033172     0.12600
H661        H  0.52461928  0.26332859  0.14299172     0.12600
H662        H  0.39676920  0.32467995  0.16503843     0.12600
C663        C  0.49843761  0.65368476  0.14754537    -0.13600
C664        C  0.48937686  0.65754638  0.10439869     0.08600
C665        C  0.47278501  0.69761946  0.08942885    -0.13600
C666        C  0.46157228  0.73178535  0.11799785    -0.13600
C667        C  0.46745263  0.72634466  0.16159576     0.08600
C668        C  0.48770934  0.68779820  0.17578108    -0.13600
H669        H  0.51190845  0.62359702  0.15992006     0.12600
H670        H  0.46571238  0.70162701  0.05623025     0.12600
H671        H  0.44565143  0.76115291  0.10660872     0.12600
H672        H  0.49242414  0.68304285  0.20945514     0.12600
C673        C  0.45918999  0.62814893  0.83266684    -0.13600
C674        C  0.50173750  0.62168628  0.84446075     0.08600
C675        C  0.52831766  0.65681509  0.84232530    -0.13600
C676        C  0.51286119  0.69723382  0.82744463    -0.13600
C677        C  0.47002929  0.70374605  0.81572397     0.08600
C678        C  0.44333682  0.66866111  0.81942451    -0.13600
H679        H  0.43744606  0.60228748  0.83558827     0.12600
H680        H  0.56107501  0.65295385  0.85222625     0.12600
H681        H  0.53462344  0.72302892  0.82438397     0.12600
H682        H  0.40989787  0.67217503  0.81173997     0.12600
C683        C  0.65697140  0.42977623  0.81894580    -0.13600
C684        C  0.65316767  0.46420482  0.84789270     0.08600
C685        C  0.69034691  0.48544786  0.85656522    -0.13600
C686        C  0.73094388  0.47088461  0.83897938    -0.13600
C687        C  0.73553752  0.43448960  0.81238751     0.08600
C688        C  0.69772551  0.41506682  0.80133293    -0.13600
H689        H  0.62896008  0.41257548  0.81205387     0.12600
H690        H  0.68824012  0.51217527  0.87892232     0.12600
H691        H  0.75873165  0.48745333  0.84745233     0.12600
H692        H  0.69927293  0.38810082  0.77944080     0.12600
C693        C  0.50410615  0.32640037  0.82605097    -0.13600
C694        C  0.51618312  0.32803556  0.86830776     0.08600
C695        C  0.53775150  0.29147229  0.88571067    -0.13600
C696        C  0.55042954  0.25552603  0.86020163    -0.13600
C697        C  0.54064711  0.25516270  0.81735182     0.08600
C698        C  0.51606067  0.29006275  0.80083522    -0.13600
H699        H  0.48690652  0.35374090  0.81210878     0.12600
H700        H  0.54736071  0.29172481  0.91832206     0.12600
H701        H  0.57008473  0.22925769  0.87310377     0.12600
H702        H  0.50885117  0.29040537  0.76745875     0.12600
C703        C  0.32818502  0.49794593  0.84296728    -0.13600
C704        C  0.36226319  0.46694363  0.84861260     0.08600
C705        C  0.35757900  0.42430734  0.83636813    -0.13600
C706        C  0.31947039  0.41284792  0.81901251    -0.13600
C707        C  0.28545298  0.44394867  0.81254350     0.08600
C708        C  0.29036943  0.48669621  0.82472197    -0.13600
H709        H  0.33065219  0.53085521  0.85338028     0.12600
H710        H  0.38256749  0.39949628  0.84207851     0.12600
H711        H  0.31681363  0.37951331  0.81019152     0.12600
H712        H  0.26548055  0.51162232  0.81924453     0.12600
C713        C  0.32579675  0.52275905  0.14976177    -0.13600
C714        C  0.34411303  0.54657195  0.11604821     0.08600
C715        C  0.32045777  0.58280765  0.10093006    -0.13600
C716        C  0.27981439  0.59571195  0.11948698    -0.13600
C717        C  0.26141422  0.57229564  0.15325403     0.08600
C718        C  0.28463001  0.53560288  0.16827672    -0.13600
H719        H  0.34277024  0.49391020  0.16100799     0.12600
H720        H  0.33343564  0.60095936  0.07414979     0.12600
H721        H  0.26306578  0.62467407  0.10816167     0.12600
H722        H  0.27154896  0.51787344  0.19528778     0.12600
C723        C  0.63099432  0.55591534  0.14430503    -0.13600
C724        C  0.63330895  0.51619352  0.12313573     0.08600
C725        C  0.67064806  0.48847883  0.12569153    -0.13600
C726        C  0.70437842  0.49966655  0.15050692    -0.13600
C727        C  0.70188852  0.53941366  0.17203851     0.08600
C728        C  0.66509439  0.56762734  0.16789322    -0.13600
H729        H  0.60331457  0.57846104  0.14157241     0.12600
H730        H  0.67342827  0.45794668  0.10881562     0.12600
H731        H  0.73153633  0.47670639  0.15401981     0.12600
H732        H  0.66215245  0.59860209  0.18392100     0.12600
loop_ 
_geom_bond_atom_site_label_1 
_geom_bond_atom_site_label_2 
_geom_bond_distance 
_geom_bond_site_symmetry_2 
_ccdc_geom_bond_type 
O1          Zr13   2.409   1_554  S
O1            C3   1.271       .  A
O2          Zr39   2.457       .  S
O2            C3   1.288       .  A
C3          C654   1.477       .  S
O4          Zr16   2.401       .  S
O4            C6   1.281       .  A
O5          Zr40   2.461       .  S
O5            C6   1.294       .  A
C6          C684   1.475       .  S
O7          Zr16   2.416   1_554  S
O7            C9   1.283       .  A
O8          Zr39   2.465       .  S
O8            C9   1.296       .  A
C9          C724   1.476       .  S
O10         Zr13   2.414       .  S
O10          C12   1.283       .  A
O11         Zr40   2.454       .  S
O11          C12   1.294       .  A
C12         C694   1.478       .  S
Zr13         O14   2.435   1_556  S
Zr13         O15   2.435   1_556  S
Zr13         O19   2.372   1_556  S
Zr13         O20   2.369       .  S
Zr13         O43   2.364       .  S
Zr13         O45   2.376   1_556  S
O14          H57   0.991       .  S
O15          H56   0.989       .  S
O15          H60   0.990   1_554  S
Zr16         O17   2.437       .  S
Zr16         O18   2.435       .  S
Zr16         O20   2.369       .  S
Zr16         O19   2.350   1_556  S
Zr16         O44   2.367   1_556  S
Zr16         O46   2.357       .  S
O17          H58   0.990   1_556  S
O17          H61   0.991   1_556  S
O18          H51   0.990       .  S
O19         Zr39   2.392       .  S
O20         Zr40   2.399       .  S
O20          H47   0.970       .  S
O21         Zr33   2.408       .  S
O21          C23   1.281       .  A
O22         Zr40   2.469       .  S
O22          C23   1.296       .  A
C23         C704   1.475       .  S
O24         Zr36   2.441   1_554  S
O24          C26   1.288       .  A
O25         Zr39   2.429       .  S
O25          C26   1.290       .  A
C26         C664   1.481       .  S
O27         Zr36   2.417       .  S
O27          C29   1.273       .  A
O28         Zr40   2.463       .  S
O28          C29   1.290       .  A
C29         C674   1.483       .  S
O30         Zr33   2.400   1_554  S
O30          C32   1.279       .  A
O31         Zr39   2.476       .  S
O31          C32   1.296       .  A
C32         C714   1.475       .  S
Zr33         O34   2.437       .  S
Zr33         O35   2.434       .  S
Zr33         O41   2.362       .  S
Zr33         O42   2.366   1_556  S
Zr33         O45   2.365   1_556  S
Zr33         O43   2.365       .  S
O34          H54   0.990       .  S
O34          H59   0.990       .  S
O35          H55   0.990       .  S
Zr36         O37   2.437       .  S
Zr36         O38   2.438       .  S
Zr36         O42   2.367   1_556  S
Zr36         O41   2.381       .  S
Zr36         O46   2.373       .  S
Zr36         O44   2.365   1_556  S
O37          H53   0.990       .  S
O38          H52   0.990       .  S
O38          H62   0.990       .  S
Zr39         O42   2.389       .  S
Zr39         O44   2.396       .  S
Zr39         O45   2.406       .  S
Zr40         O41   2.409       .  S
Zr40         O43   2.384       .  S
Zr40         O46   2.401       .  S
O41          H49   0.965       .  S
O44          H48   0.963       .  S
O45          H50   0.965       .  S
N63          C67   1.361       .  A
N63          C64   1.369       .  A
N63         C644   1.459       .  S
C64         C634   1.499       .  S
C64          C65   1.388       .  A
C65          C66   1.361       .  A
C65          H68   1.080       .  S
C66          C67   1.377       .  A
C66          H69   1.083       .  S
C67         C717   1.477       .  S
N70          C74   1.370       .  A
N70          C71   1.366       .  A
N70         C624   1.456       .  S
C71         C614   1.475       .  S
C71          C72   1.378       .  A
C72          C73   1.359       .  A
C72          H75   1.083       .  S
C73          C74   1.384       .  A
C73          H76   1.082       .  S
C74         C727   1.488       .  S
N77          C81   1.369       .  A
N77          C78   1.372       .  A
N77         C604   1.464       .  S
C78         C707   1.492       .  S
C78          C79   1.384       .  A
C79          C80   1.361       .  A
C79          H82   1.082       .  S
C80          C81   1.380       .  A
C80          H83   1.083       .  S
C81         C594   1.482       .  S
N84          C88   1.363       .  A
N84          C85   1.366       .  A
N84         C584   1.462       .  S
C85         C687   1.493       .  S
C85          C86   1.383       .  A
C86          C87   1.363       .  A
C86          H89   1.081       .  S
C87          C88   1.386       .  A
C87          H90   1.083       .  S
C88         C574   1.491       .  S
N91          C96   1.362       .  A
N91          C95   1.362   1_655  A
N91         H123   1.031       .  S
N92          C99   1.363   1_556  A
N92         C100   1.362       .  A
N93          C98   1.363   1_455  A
N93          C97   1.361       .  A
N93         H124   1.035   1_455  S
N94         C101   1.361   1_556  A
N94         C102   1.361       .  A
C95         C103   1.388       .  A
C95         C111   1.437       .  A
C96         C112   1.437       .  A
C96         C104   1.389       .  A
C97         C105   1.389       .  A
C97         C114   1.433       .  A
C98         C113   1.430       .  A
C98         C106   1.386       .  A
C99         C111   1.437       .  A
C99         C107   1.388       .  A
C100        C114   1.434       .  A
C100        C108   1.386       .  A
C101        C109   1.389       .  A
C101        C112   1.435       .  A
C102        C110   1.385       .  A
C102        C113   1.430       .  A
C103        C104   1.377   1_455  A
C103        H115   1.082       .  S
C104        H116   1.081       .  S
C105        C106   1.375   1_455  A
C105        H117   1.081       .  S
C106        H118   1.082       .  S
C107        C108   1.377   1_554  A
C107        H119   1.082       .  S
C108        H120   1.082       .  S
C109        C110   1.376   1_554  A
C109        H121   1.082       .  S
C110        H122   1.082       .  S
C111        C647   1.523       .  S
C112        C627   1.517       .  S
C113        C587   1.516       .  S
C114        C607   1.518       .  S
O125       Zr137   2.387       .  S
O125        C127   1.278       .  A
O126       Zr163   2.482       .  S
O126        C127   1.299       .  A
C127        C637   1.473       .  S
O128       Zr140   2.413       .  S
O128        C130   1.275       .  A
O129       Zr164   2.463       .  S
O129        C130   1.292       .  A
C130        C544   1.463       .  S
O131       Zr140   2.419   1_455  S
O131        C133   1.284       .  A
O132       Zr163   2.474       .  S
O132        C133   1.297       .  A
C133        C564   1.486       .  S
O134       Zr137   2.429   1_655  S
O134        C136   1.286       .  A
O135       Zr164   2.462       .  S
O135        C136   1.296       .  A
C136        C617   1.479       .  S
Zr137       O138   2.436       .  S
Zr137       O139   2.433       .  S
Zr137       O143   2.375       .  S
Zr137       O144   2.358   1_455  S
Zr137       O167   2.345   1_455  S
Zr137       O169   2.373       .  S
O138        H181   0.990   1_455  S
O139        H180   0.990       .  S
O139        H184   0.990   1_455  S
Zr140       O141   2.434   1_655  S
Zr140       O142   2.434       .  S
Zr140       O144   2.371       .  S
Zr140       O143   2.350   1_655  S
Zr140       O168   2.378   1_655  S
Zr140       O170   2.368       .  S
O141        H182   0.990       .  S
O141        H185   0.990       .  S
O142        H175   0.990       .  S
O143       Zr163   2.380       .  S
O144       Zr164   2.392       .  S
O144        H171   0.964       .  S
O145       Zr157   2.412   1_655  S
O145        C147   1.282       .  A
O146       Zr164   2.456       .  S
O146        C147   1.295       .  A
C147        C534   1.467       .  S
O148       Zr160   2.422   1_455  S
O148        C150   1.285       .  A
O149       Zr163   2.469       .  S
O149        C150   1.297       .  A
C150        C597   1.493       .  S
O151       Zr160   2.424       .  S
O151        C153   1.276       .  A
O152       Zr164   2.450       .  S
O152        C153   1.289       .  A
C153        C577   1.486       .  S
O154       Zr157   2.395       .  S
O154        C156   1.278       .  A
O155       Zr163   2.462       .  S
O155        C156   1.294       .  A
C156        C554   1.463       .  S
Zr157       O158   2.438   1_455  S
Zr157       O159   2.437       .  S
Zr157       O165   2.356   1_455  S
Zr157       O166   2.357       .  S
Zr157       O169   2.376       .  S
Zr157       O167   2.358   1_455  S
O158        H178   0.991   1_655  S
O158        H183   0.990       .  S
O159        H179   0.990       .  S
Zr160       O161   2.438       .  S
Zr160       O162   2.435       .  S
Zr160       O166   2.354   1_655  S
Zr160       O165   2.374       .  S
Zr160       O170   2.364       .  S
Zr160       O168   2.371   1_655  S
O161        H177   0.990       .  S
O162        H176   0.990       .  S
O162        H186   0.990       .  S
Zr163       O166   2.388       .  S
Zr163       O168   2.392       .  S
Zr163       O169   2.407       .  S
Zr164       O165   2.408       .  S
Zr164       O167   2.381       .  S
Zr164       O170   2.399       .  S
O165        H173   0.967       .  S
O168        H172   0.963       .  S
O169        H174   0.961       .  S
N187        C191   1.359       .  A
N187        C188   1.369       .  A
N187        C524   1.453       .  S
C188        C514   1.492       .  S
C188        C189   1.387       .  A
C189        C190   1.361       .  A
C189        H192   1.082       .  S
C190        C191   1.378       .  A
C190        H193   1.083       .  S
C191        C667   1.473       .  S
N194        C198   1.372       .  A
N194        C195   1.368       .  A
N194        C504   1.466       .  S
C195        C494   1.471       .  S
C195        C196   1.378       .  A
C196        C197   1.354       .  A
C196        H199   1.083       .  S
C197        C198   1.386       .  A
C197        H200   1.082       .  S
C198        C657   1.488       .  S
N201        C205   1.370       .  A
N201        C202   1.361       .  A
N201        C484   1.462       .  S
C202        C697   1.468       .  S
C202        C203   1.376       .  A
C203        C204   1.360       .  A
C203        H206   1.083       .  S
C204        C205   1.388       .  A
C204        H207   1.082       .  S
C205        C474   1.492       .  S
N208        C212   1.364       .  A
N208        C209   1.372       .  A
N208        C464   1.457       .  S
C209        C677   1.499       .  S
C209        C210   1.387       .  A
C210        C211   1.360       .  A
C210        H213   1.081       .  S
C211        C212   1.377       .  A
C211        H214   1.083       .  S
C212        C454   1.478       .  S
N215        C220   1.363   1_565  A
N215        C219   1.364       .  A
N215        H247   1.039       .  S
N216        C223   1.360   1_556  A
N216        C224   1.360       .  A
N217        C222   1.361   1_565  A
N217        C221   1.360       .  A
N217        H248   1.039       .  S
N218        C225   1.362   1_556  A
N218        C226   1.363       .  A
C219        C227   1.388       .  A
C219        C235   1.435       .  A
C220        C236   1.432       .  A
C220        C228   1.386       .  A
C221        C229   1.388       .  A
C221        C238   1.429       .  A
C222        C237   1.428       .  A
C222        C230   1.387       .  A
C223        C235   1.429       .  A
C223        C231   1.388       .  A
C224        C238   1.429       .  A
C224        C232   1.386       .  A
C225        C233   1.385       .  A
C225        C236   1.430       .  A
C226        C234   1.387       .  A
C226        C237   1.433       .  A
C227        C228   1.378   1_565  A
C227        H239   1.081       .  S
C228        H240   1.082       .  S
C229        C230   1.377   1_565  A
C229        H241   1.082       .  S
C230        H242   1.082       .  S
C231        C232   1.374   1_554  A
C231        H243   1.081       .  S
C232        H244   1.082       .  S
C233        C234   1.377   1_554  A
C233        H245   1.082       .  S
C234        H246   1.082       .  S
C235        C527   1.517       .  S
C236        C507   1.524       .  S
C237        C487   1.521       .  S
C238        C467   1.515       .  S
N249        C253   1.369       .  A
N249        C250   1.369       .  A
N249        C444   1.458       .  S
C250        C567   1.482       .  S
C250        C251   1.379       .  A
C251        C252   1.360       .  A
C251        H254   1.083       .  S
C252        C253   1.384       .  A
C252        H255   1.082       .  S
C253        C434   1.491       .  S
N256        C260   1.368       .  A
N256        C257   1.368       .  A
N256        C424   1.462       .  S
C257        C414   1.478       .  S
C257        C258   1.381       .  A
C258        C259   1.358       .  A
C258        H261   1.083       .  S
C259        C260   1.385       .  A
C259        H262   1.082       .  S
C260        C537   1.486       .  S
N263        C267   1.363       .  A
N263        C264   1.367       .  A
N263        C404   1.459       .  S
C264        C394   1.490       .  S
C264        C265   1.383       .  A
C265        C266   1.360       .  A
C265        H268   1.082       .  S
C266        C267   1.383       .  A
C266        H269   1.083       .  S
C267        C557   1.480       .  S
N270        C274   1.365       .  A
N270        C271   1.360       .  A
N270        C384   1.466       .  S
C271        C547   1.482       .  S
C271        C272   1.384       .  A
C272        C273   1.362       .  A
C272        H275   1.083       .  S
C273        C274   1.384       .  A
C273        H276   1.081       .  S
C274        C374   1.488       .  S
N277        C282   1.362   1_455  A
N277        C281   1.360       .  A
N277        H309   1.038       .  S
N278        C285   1.360   1_545  A
N278        C286   1.360       .  A
N279        C284   1.361   1_455  A
N279        C283   1.365       .  A
N279        H310   1.040       .  S
N280        C287   1.362   1_545  A
N280        C288   1.361       .  A
C281        C289   1.386       .  A
C281        C297   1.428       .  A
C282        C298   1.432       .  A
C282        C290   1.389       .  A
C283        C291   1.388       .  A
C283        C300   1.434       .  A
C284        C299   1.432       .  A
C284        C292   1.387       .  A
C285        C297   1.429       .  A
C285        C293   1.387       .  A
C286        C300   1.428       .  A
C286        C294   1.386       .  A
C287        C295   1.384       .  A
C287        C298   1.429       .  A
C288        C296   1.388       .  A
C288        C299   1.432       .  A
C289        C290   1.379   1_455  A
C289        H301   1.082       .  S
C290        H302   1.082       .  S
C291        C292   1.380   1_455  A
C291        H303   1.082       .  S
C292        H304   1.082       .  S
C293        C294   1.375   1_565  A
C293        H305   1.082       .  S
C294        H306   1.082       .  S
C295        C296   1.376   1_565  A
C295        H307   1.082       .  S
C296        H308   1.082       .  S
C297        C447   1.514       .  S
C298        C387   1.523       .  S
C299        C427   1.521       .  S
C300        C407   1.523       .  S
O311       Zr323   2.410   1_565  S
O311        C313   1.281       .  A
O312       Zr349   2.462       .  S
O312        C313   1.295       .  A
C313        C437   1.474       .  S
O314       Zr326   2.407   1_545  S
O314        C316   1.282       .  A
O315       Zr350   2.457       .  S
O315        C316   1.296       .  A
C316        C497   1.476       .  S
O317       Zr326   2.388       .  S
O317        C319   1.277       .  A
O318       Zr349   2.492       .  S
O318        C319   1.301       .  A
C319        C517   1.476       .  S
O320       Zr323   2.384       .  S
O320        C322   1.278       .  A
O321       Zr350   2.478       .  S
O321        C322   1.299       .  A
C322        C397   1.483       .  S
Zr323       O324   2.434       .  S
Zr323       O325   2.439       .  S
Zr323       O329   2.352   1_545  S
Zr323       O330   2.359       .  S
Zr323       O353   2.363       .  S
Zr323       O355   2.364   1_545  S
O324        H367   0.990   1_545  S
O325        H366   0.990       .  S
O325        H370   0.990   1_545  S
Zr326       O327   2.439       .  S
Zr326       O328   2.434       .  S
Zr326       O330   2.365   1_565  S
Zr326       O329   2.374       .  S
Zr326       O354   2.367       .  S
Zr326       O356   2.351   1_565  S
O327        H368   0.990       .  S
O327        H371   0.991       .  S
O328        H361   0.990       .  S
O329       Zr349   2.384       .  S
O330       Zr350   2.394       .  S
O330        H357   0.965       .  S
O331       Zr343   2.419       .  S
O331        C333   1.274       .  A
O332       Zr350   2.446       .  S
O332        C333   1.287       .  A
C333        C477   1.475       .  S
O334       Zr346   2.394       .  S
O334        C336   1.280       .  A
O335       Zr349   2.452       .  S
O335        C336   1.293       .  A
C336        C377   1.459       .  S
O337       Zr346   2.394   1_545  S
O337        C339   1.279       .  A
O338       Zr350   2.472       .  S
O338        C339   1.298       .  A
C339        C417   1.481       .  S
O340       Zr343   2.409   1_565  S
O340        C342   1.282       .  A
O341       Zr349   2.475       .  S
O341        C342   1.298       .  A
C342        C457   1.491       .  S
Zr343       O344   2.434       .  S
Zr343       O345   2.433       .  S
Zr343       O351   2.365       .  S
Zr343       O352   2.360   1_545  S
Zr343       O355   2.367   1_545  S
Zr343       O353   2.361       .  S
O344        H364   0.990       .  S
O344        H369   0.990   1_545  S
O345        H365   0.990       .  S
Zr346       O347   2.434   1_565  S
Zr346       O348   2.437       .  S
Zr346       O352   2.363       .  S
Zr346       O351   2.359   1_565  S
Zr346       O356   2.359   1_565  S
Zr346       O354   2.359       .  S
O347        H363   0.990   1_545  S
O348        H362   0.991   1_565  S
O348        H372   0.990       .  S
Zr349       O352   2.388       .  S
Zr349       O354   2.398       .  S
Zr349       O355   2.388       .  S
Zr350       O351   2.404       .  S
Zr350       O353   2.392       .  S
Zr350       O356   2.390       .  S
O351        H359   0.966       .  S
O354        H358   0.962       .  S
O355        H360   0.966       .  S
C373        C374   1.406       .  A
C373        C378   1.399       .  A
C373        H379   1.083       .  S
C374        C375   1.410       .  A
C375        C376   1.395       .  A
C375        H380   1.082       .  S
C376        C377   1.399       .  A
C376        H381   1.084       .  S
C377        C378   1.403       .  A
C378        H382   1.083       .  S
C383        C384   1.411       .  A
C383        C388   1.411       .  A
C383        H389   1.079       .  S
C384        C385   1.414       .  A
C385        C386   1.411       .  A
C385        H390   1.082       .  S
C386        C387   1.410       .  A
C386        H391   1.083       .  S
C387        C388   1.410       .  A
C388        H392   1.083       .  S
C393        C394   1.416       .  A
C393        C398   1.399       .  A
C393        H399   1.082       .  S
C394        C395   1.398       .  A
C395        C396   1.397       .  A
C395        H400   1.081       .  S
C396        C397   1.416       .  A
C396        H401   1.083       .  S
C397        C398   1.397       .  A
C398        H402   1.083       .  S
C403        C404   1.409       .  A
C403        C408   1.416       .  A
C403        H409   1.081       .  S
C404        C405   1.409       .  A
C405        C406   1.405       .  A
C405        H410   1.083       .  S
C406        C407   1.408       .  A
C406        H411   1.083       .  S
C407        C408   1.413       .  A
C408        H412   1.083       .  S
C413        C414   1.396       .  A
C413        C418   1.400       .  A
C413        H419   1.083       .  S
C414        C415   1.412       .  A
C415        C416   1.396       .  A
C415        H420   1.084       .  S
C416        C417   1.397       .  A
C416        H421   1.083       .  S
C417        C418   1.416       .  A
C418        H422   1.083       .  S
C423        C424   1.411       .  A
C423        C428   1.408       .  A
C423        H429   1.083       .  S
C424        C425   1.407       .  A
C425        C426   1.413       .  A
C425        H430   1.081       .  S
C426        C427   1.413       .  A
C426        H431   1.083       .  S
C427        C428   1.408       .  A
C428        H432   1.083       .  S
C433        C434   1.410       .  A
C433        C438   1.394       .  A
C433        H439   1.082       .  S
C434        C435   1.406       .  A
C435        C436   1.405       .  A
C435        H440   1.082       .  S
C436        C437   1.409       .  A
C436        H441   1.083       .  S
C437        C438   1.397       .  A
C438        H442   1.084       .  S
C443        C444   1.407       .  A
C443        C448   1.412       .  A
C443        H449   1.082       .  S
C444        C445   1.411       .  A
C445        C446   1.406       .  A
C445        H450   1.083       .  S
C446        C447   1.406       .  A
C446        H451   1.083       .  S
C447        C448   1.411       .  A
C448        H452   1.083       .  S
C453        C454   1.397       .  A
C453        C458   1.400       .  A
C453        H459   1.083       .  S
C454        C455   1.410       .  A
C455        C456   1.401       .  A
C455        H460   1.083       .  S
C456        C457   1.402       .  A
C456        H461   1.083       .  S
C457        C458   1.416       .  A
C458        H462   1.083       .  S
C463        C464   1.411       .  A
C463        C468   1.406       .  A
C463        H469   1.082       .  S
C464        C465   1.408       .  A
C465        C466   1.411       .  A
C465        H470   1.082       .  S
C466        C467   1.411       .  A
C466        H471   1.083       .  S
C467        C468   1.407       .  A
C468        H472   1.083       .  S
C473        C474   1.412       .  A
C473        C478   1.395       .  A
C473        H479   1.082       .  S
C474        C475   1.406       .  A
C475        C476   1.405       .  A
C475        H480   1.082       .  S
C476        C477   1.408       .  A
C476        H481   1.083       .  S
C477        C478   1.399       .  A
C478        H482   1.084       .  S
C483        C484   1.410       .  A
C483        C488   1.410       .  A
C483        H489   1.081       .  S
C484        C485   1.410       .  A
C485        C486   1.410       .  A
C485        H490   1.082       .  S
C486        C487   1.411       .  A
C486        H491   1.083       .  S
C487        C488   1.410       .  A
C488        H492   1.083       .  S
C493        C494   1.410       .  A
C493        C498   1.394       .  A
C493        H499   1.084       .  S
C494        C495   1.396       .  A
C495        C496   1.397       .  A
C495        H500   1.083       .  S
C496        C497   1.413       .  A
C496        H501   1.083       .  S
C497        C498   1.398       .  A
C498        H502   1.083       .  S
C503        C504   1.412       .  A
C503        C508   1.416       .  A
C503        H509   1.081       .  S
C504        C505   1.411       .  A
C505        C506   1.410       .  A
C505        H510   1.082       .  S
C506        C507   1.408       .  A
C506        H511   1.083       .  S
C507        C508   1.412       .  A
C508        H512   1.083       .  S
C513        C514   1.411       .  A
C513        C518   1.398       .  A
C513        H519   1.082       .  S
C514        C515   1.405       .  A
C515        C516   1.405       .  A
C515        H520   1.082       .  S
C516        C517   1.411       .  A
C516        H521   1.083       .  S
C517        C518   1.399       .  A
C518        H522   1.084       .  S
C523        C524   1.408       .  A
C523        C528   1.407       .  A
C523        H529   1.083       .  S
C524        C525   1.406       .  A
C525        C526   1.413       .  A
C525        H530   1.082       .  S
C526        C527   1.412       .  A
C526        H531   1.083       .  S
C527        C528   1.408       .  A
C528        H532   1.083       .  S
C533        C534   1.397       .  A
C533        C538   1.392       .  A
C533        H539   1.084       .  S
C534        C535   1.407       .  A
C535        C536   1.403       .  A
C535        H540   1.083       .  S
C536        C537   1.406       .  A
C536        H541   1.082       .  S
C537        C538   1.408       .  A
C538        H542   1.083       .  S
C543        C544   1.403       .  A
C543        C548   1.404       .  A
C543        H549   1.083       .  S
C544        C545   1.400       .  A
C545        C546   1.391       .  A
C545        H550   1.084       .  S
C546        C547   1.402       .  A
C546        H551   1.083       .  S
C547        C548   1.411       .  A
C548        H552   1.083       .  S
C553        C554   1.403       .  A
C553        C558   1.394       .  A
C553        H559   1.084       .  S
C554        C555   1.402       .  A
C555        C556   1.402       .  A
C555        H560   1.083       .  S
C556        C557   1.407       .  A
C556        H561   1.082       .  S
C557        C558   1.404       .  A
C558        H562   1.083       .  S
C563        C564   1.400       .  A
C563        C568   1.401       .  A
C563        H569   1.083       .  S
C564        C565   1.413       .  A
C565        C566   1.403       .  A
C565        H570   1.083       .  S
C566        C567   1.398       .  A
C566        H571   1.083       .  S
C567        C568   1.413       .  A
C568        H572   1.084       .  S
C573        C574   1.415       .  A
C573        C578   1.398       .  A
C573        H579   1.083       .  S
C574        C575   1.398       .  A
C575        C576   1.401       .  A
C575        H580   1.081       .  S
C576        C577   1.412       .  A
C576        H581   1.082       .  S
C577        C578   1.401       .  A
C578        H582   1.083       .  S
C583        C584   1.408       .  A
C583        C588   1.415       .  A
C583        H589   1.082       .  S
C584        C585   1.412       .  A
C585        C586   1.406       .  A
C585        H590   1.082       .  S
C586        C587   1.405       .  A
C586        H591   1.083       .  S
C587        C588   1.411       .  A
C588        H592   1.083       .  S
C593        C594   1.412       .  A
C593        C598   1.403       .  A
C593        H599   1.084       .  S
C594        C595   1.397       .  A
C595        C596   1.401       .  A
C595        H600   1.083       .  S
C596        C597   1.415       .  A
C596        H601   1.083       .  S
C597        C598   1.402       .  A
C598        H602   1.083       .  S
C603        C604   1.412       .  A
C603        C608   1.407       .  A
C603        H609   1.082       .  S
C604        C605   1.411       .  A
C605        C606   1.414       .  A
C605        H610   1.081       .  S
C606        C607   1.413       .  A
C606        H611   1.083       .  S
C607        C608   1.405       .  A
C608        H612   1.083       .  S
C613        C614   1.399       .  A
C613        C618   1.402       .  A
C613        H619   1.083       .  S
C614        C615   1.410       .  A
C615        C616   1.399       .  A
C615        H620   1.084       .  S
C616        C617   1.399       .  A
C616        H621   1.083       .  S
C617        C618   1.410       .  A
C618        H622   1.083       .  S
C623        C624   1.408       .  A
C623        C628   1.407       .  A
C623        H629   1.083       .  S
C624        C625   1.408       .  A
C625        C626   1.413       .  A
C625        H630   1.082       .  S
C626        C627   1.412       .  A
C626        H631   1.083       .  S
C627        C628   1.407       .  A
C628        H632   1.083       .  S
C633        C634   1.414       .  A
C633        C638   1.397       .  A
C633        H639   1.080       .  S
C634        C635   1.406       .  A
C635        C636   1.405       .  A
C635        H640   1.082       .  S
C636        C637   1.410       .  A
C636        H641   1.083       .  S
C637        C638   1.398       .  A
C638        H642   1.084       .  S
C643        C644   1.407       .  A
C643        C648   1.414       .  A
C643        H649   1.082       .  S
C644        C645   1.411       .  A
C645        C646   1.408       .  A
C645        H650   1.083       .  S
C646        C647   1.409       .  A
C646        H651   1.083       .  S
C647        C648   1.413       .  A
C648        H652   1.083       .  S
C653        C654   1.397       .  A
C653        C658   1.394       .  A
C653        H659   1.083       .  S
C654        C655   1.410       .  A
C655        C656   1.405       .  A
C655        H660   1.083       .  S
C656        C657   1.404       .  A
C656        H661   1.083       .  S
C657        C658   1.411       .  A
C658        H662   1.083       .  S
C663        C664   1.402       .  A
C663        C668   1.393       .  A
C663        H669   1.083       .  S
C664        C665   1.411       .  A
C665        C666   1.403       .  A
C665        H670   1.083       .  S
C666        C667   1.399       .  A
C666        H671   1.083       .  S
C667        C668   1.405       .  A
C668        H672   1.084       .  S
C673        C674   1.399       .  A
C673        C678   1.397       .  A
C673        H679   1.084       .  S
C674        C675   1.410       .  A
C675        C676   1.408       .  A
C675        H680   1.083       .  S
C676        C677   1.407       .  A
C676        H681   1.083       .  S
C677        C678   1.413       .  A
C678        H682   1.081       .  S
C683        C684   1.398       .  A
C683        C688   1.401       .  A
C683        H689   1.084       .  S
C684        C685   1.408       .  A
C685        C686   1.395       .  A
C685        H690   1.084       .  S
C686        C687   1.401       .  A
C686        H691   1.081       .  S
C687        C688   1.417       .  A
C688        H692   1.081       .  S
C693        C694   1.401       .  A
C693        C698   1.397       .  A
C693        H699   1.083       .  S
C694        C695   1.411       .  A
C695        C696   1.397       .  A
C695        H700   1.083       .  S
C696        C697   1.396       .  A
C696        H701   1.083       .  S
C697        C698   1.406       .  A
C698        H702   1.084       .  S
C703        C704   1.407       .  A
C703        C708   1.403       .  A
C703        H709   1.083       .  S
C704        C705   1.400       .  A
C705        C706   1.400       .  A
C705        H710   1.084       .  S
C706        C707   1.413       .  A
C706        H711   1.083       .  S
C707        C708   1.404       .  A
C708        H712   1.082       .  S
C713        C714   1.404       .  A
C713        C718   1.408       .  A
C713        H719   1.083       .  S
C714        C715   1.406       .  A
C715        C716   1.394       .  A
C715        H720   1.084       .  S
C716        C717   1.399       .  A
C716        H721   1.083       .  S
C717        C718   1.409       .  A
C718        H722   1.083       .  S
C723        C724   1.398       .  A
C723        C728   1.396       .  A
C723        H729   1.084       .  S
C724        C725   1.409       .  A
C725        C726   1.405       .  A
C725        H730   1.083       .  S
C726        C727   1.404       .  A
C726        H731   1.083       .  S
C727        C728   1.411       .  A
C728        H732   1.083       .  S
