geometry optimzed in LAMMPS
_audit_creation_date              2020-11-30 
_audit_creation_method            'lammps2cif' 
_symmetry_space_group_name_H-M    'P1' 
_symmetry_Int_Tables_number       1 
_symmetry_cell_setting            triclinic 
loop_ 
_symmetry_equiv_pos_as_xyz 
  x,y,z 
_cell_length_a                    42.93832284 
_cell_length_b                    43.34927043619149 
_cell_length_c                    42.90343926613395 
_cell_angle_alpha                 89.05243706721447 
_cell_angle_beta                  89.09786216583697 
_cell_angle_gamma                 91.48690553730383 
loop_ 
_atom_site_label 
_atom_site_type_symbol 
_atom_site_fract_x 
_atom_site_fract_y 
_atom_site_fract_z 
_atom_site_charge 
C1          C  0.24502440  0.16027419  0.04797176     0.42800
N2          N  0.23146169  0.19536968  0.01476691     0.01700
C3          C  0.33214988  0.28925362  0.42689192    -0.06200
H4          H  0.33282319  0.30597155  0.05157469     0.07200
C5          C  0.22239498  0.33642858  0.05147981    -0.06500
Co6        Co  0.28506371  0.22111907  0.47797543     0.74200
N7          N  0.31194682  0.27655915  0.01662396    -0.25700
Co8        Co  0.28681742  0.30418528  0.98556393     0.74100
C9          C  0.25042034  0.34713058  0.06732728     0.42900
N10         N  0.18226191  0.27287517  0.02466276     0.01300
N11         N  0.26307714  0.32457919  0.02426244     0.01400
N12         N  0.32273724  0.23869044  0.42086356    -0.46600
H13         H  0.29701018  0.16846578  0.03548060     0.07200
N14         N  0.31125186  0.24631696  0.01315617     0.01700
N15         N  0.25987690  0.32771723  0.45255092     0.01400
C16         C  0.23948641  0.35587676  0.41586014     0.43100
N17         N  0.18261399  0.24282547  0.02057986    -0.25200
C18         C  0.26413793  0.17485165  0.42412289    -0.06100
N19         N  0.22036985  0.17409539  0.03480292    -0.46300
N20         N  0.26681234  0.34386767  0.42617379    -0.46500
C21         C  0.23370375  0.16245080  0.41338250     0.42800
N22         N  0.30523578  0.24948023  0.44340769     0.01700
N23         N  0.18099104  0.24712738  0.45425063    -0.25200
N24         N  0.26216146  0.19591647  0.01305987    -0.25700
N25         N  0.17920042  0.27727415  0.45691250     0.01300
H26         H  0.15823060  0.21401826  0.42503291     0.07200
H27         H  0.19080387  0.34593529  0.43796355     0.07300
N28         N  0.30963810  0.27940706  0.44723515    -0.25700
N29         N  0.23230334  0.32256456  0.02584324    -0.25300
N30         N  0.22701549  0.19831743  0.44754477     0.01700
C31         C  0.33881036  0.25319124  0.05466083     0.43100
C32         C  0.16546572  0.22887671  0.04303583    -0.06600
N33         N  0.22968326  0.32697025  0.45850450    -0.25300
H34         H  0.19821987  0.33853512  0.05842407     0.07200
N35         N  0.32673655  0.23192908  0.03516624    -0.46600
H36         H  0.16113985  0.20423206  0.04505392     0.07200
C37         C  0.14745421  0.26536486  0.41945045     0.42900
C38         C  0.27291010  0.17470082  0.03323966    -0.06100
Co39       Co  0.20589595  0.22008008  0.48490091     0.73800
N40         N  0.16564235  0.28055143  0.04971873    -0.46300
C41         C  0.34149798  0.26183684  0.40956184     0.43200
N42         N  0.21236104  0.17835490  0.42957091    -0.46300
Co43       Co  0.20524682  0.30181266  0.99197681     0.73900
C44         C  0.21568867  0.34466216  0.43832905    -0.06600
C45         C  0.32892097  0.28321560  0.04221077    -0.06200
N46         N  0.25752215  0.19697967  0.44510395    -0.25700
N47         N  0.27500407  0.33872829  0.04912509    -0.46400
H48         H  0.34284668  0.31212181  0.42632632     0.07200
C49         C  0.16273010  0.23782512  0.43111559    -0.06600
Cl50       Cl  0.24565358  0.26289210  0.98497746    -0.49600
C51         C  0.15429040  0.25371283  0.06253798     0.43000
H52         H  0.28709771  0.16614232  0.41948282     0.07200
N53         N  0.15838400  0.28888126  0.43740711    -0.46300
C54         C  0.13888108  0.24916646  0.09355493     0.03500
C55         C  0.14311866  0.22047126  0.10858434    -0.12700
C56         C  0.12447603  0.21156237  0.13398199     0.01000
C57         C  0.11082293  0.23497322  0.15089830    -0.11200
C58         C  0.10023717  0.26084676  0.13421253     0.03500
C59         C  0.11578220  0.26897418  0.10562442    -0.10600
H60         H  0.15673365  0.20285497  0.09768203     0.09100
H61         H  0.09858785  0.22792772  0.17225840     0.06600
H62         H  0.10792263  0.28817921  0.09161130     0.06400
C63         C  0.35247825  0.24394163  0.08540451     0.03500
C64         C  0.37170449  0.26310924  0.10456474    -0.12700
C65         C  0.38384440  0.25051201  0.13281637     0.01000
C66         C  0.37348028  0.22079629  0.14238154    -0.11200
C67         C  0.36338988  0.20038323  0.11997384     0.03500
C68         C  0.34951592  0.21229367  0.09343409    -0.10600
H69         H  0.37909014  0.28594899  0.09642979     0.09100
H70         H  0.38269542  0.21069177  0.16353322     0.06600
H71         H  0.34029524  0.19587864  0.07695149     0.06400
C72         C  0.07814514  0.25775450  0.36406240     0.03500
C73         C  0.10703821  0.26889196  0.37591301    -0.12700
C74         C  0.11505928  0.26252654  0.40743333     0.01000
C75         C  0.09420555  0.24474524  0.42616540    -0.11200
C76         C  0.06780689  0.23068188  0.41359211     0.03500
C77         C  0.05903696  0.23841947  0.38329634    -0.10600
H78         H  0.12367052  0.28076935  0.36041111     0.09100
H79         H  0.10107930  0.23781293  0.44944143     0.06600
H80         H  0.03846586  0.22720163  0.37385727     0.06400
C81         C  0.41743166  0.24479416  0.36746027     0.03500
C82         C  0.39057149  0.26128375  0.37558234    -0.12700
C83         C  0.37416248  0.25362101  0.40350656     0.01000
C84         C  0.38591538  0.23116284  0.42380152    -0.11200
C85         C  0.41048019  0.21310903  0.41474874     0.03500
C86         C  0.42652009  0.22009473  0.38686007    -0.10600
H87         H  0.38142076  0.27813340  0.35945865     0.09100
H88         H  0.37346304  0.22501068  0.44532609     0.06600
H89         H  0.44580333  0.20585739  0.38017262     0.06400
N90         N  0.49166055  0.11457432  0.46513830    -0.36300
N91         N  0.04381266  0.10292180  0.03673248    -0.56800
N92         N  0.49836874  0.09946344  0.07969563    -0.36300
N93         N  0.44758591  0.08978411  0.03391824    -0.56800
C94         C  0.01579842  0.09923901  0.47554294     0.27300
C95         C  0.46932930  0.09317334  0.47289688     0.27300
C96         C  0.01859266  0.09993697  0.10187445     0.27300
C97         C  0.47256006  0.09809294  0.09856562     0.27300
C98         C  0.05992955  0.11216508  0.50741916     0.35900
C99         C  0.06050230  0.11177100  0.06133514     0.35900
C100        C  0.42555557  0.09036240  0.50805104     0.35900
C101        C  0.42942707  0.09171256  0.05950236     0.35900
C102        C  0.01083568  0.06937027  0.48615753    -0.21500
C103        C  0.48266723  0.06582068  0.48213636    -0.21500
C104        C  0.00886509  0.09731025  0.13278281    -0.21500
C105        C  0.48138821  0.10169261  0.12923082    -0.21500
C106        C  0.08829695  0.12609477  0.51386694    -0.22600
C107        C  0.08726296  0.12805040  0.05091705    -0.22600
C108        C  0.39477752  0.09264953  0.51698903    -0.22600
C109        C  0.39852844  0.09485712  0.05062220    -0.22600
C110        C  0.04326217  0.11652517  0.47980783    -0.17900
C111        C  0.43826528  0.10040853  0.47921705    -0.17900
C112        C  0.44092334  0.09966119  0.08918288    -0.17900
C113        C  0.04911710  0.11079074  0.09259022    -0.17900
H114        H  0.02812008  0.05454467  0.49505235     0.15000
H115        H  0.47079040  0.04507906  0.49099890     0.15000
H116        H  0.02309148  0.10035300  0.15317084     0.15000
H117        H  0.46610749  0.10304428  0.14945433     0.15000
H118        H  0.10352220  0.13906118  0.49785385     0.13300
H119        H  0.10458289  0.13975606  0.06475637     0.13200
H120        H  0.37539551  0.09839023  0.50233707     0.13300
H121        H  0.37853928  0.09877618  0.06550593     0.13200
H122        H  0.48844959  0.13783683  0.45991797     0.26500
H123        H  0.49828793  0.09992414  0.05550881     0.26500
C124        C  0.07350280  0.17098825  0.22681516     0.42800
N125        N  0.03494064  0.19957181  0.24119911     0.01700
C126        C  0.42836096  0.28899272  0.15771072    -0.06200
H127        H  0.05873849  0.31772469  0.15173679     0.07200
C128        C  0.05190395  0.34240231  0.25892752    -0.06500
Co129      Co  0.49415739  0.22632959  0.19022962     0.74200
N130        N  0.02478491  0.28299104  0.16753177    -0.25700
Co131      Co  0.49005484  0.30743291  0.19523205     0.74100
C132        C  0.06757157  0.35453485  0.23041942     0.42900
N133        N  0.03366373  0.27488543  0.29755207     0.01300
N134        N  0.02588608  0.32867437  0.21876711     0.01400
N135        N  0.43404504  0.23758445  0.15628266    -0.46600
H136        H  0.05947735  0.17619252  0.17522413     0.07200
N137        N  0.02422626  0.25268231  0.16514543     0.01700
N138        N  0.45628555  0.32762731  0.22557854     0.01400
C139        C  0.41929531  0.35430293  0.24695478     0.43100
N140        N  0.03615366  0.24494697  0.29368992    -0.25200
C141        C  0.44077157  0.17658306  0.21068539    -0.06100
N142        N  0.05840397  0.18330749  0.25135562    -0.46300
N143        N  0.43416183  0.34800991  0.21941320    -0.46500
C144        C  0.42871341  0.16509393  0.24134518     0.42800
N145        N  0.45725408  0.25076046  0.17120483     0.01700
N146        N  0.46852096  0.24092867  0.29968976    -0.25200
N147        N  0.03248368  0.19935974  0.21062253    -0.25700
N148        N  0.46541720  0.27082682  0.30275401     0.01300
H149        H  0.44872460  0.20116822  0.32401335     0.07200
H150        H  0.43237090  0.33657905  0.29564782     0.07300
N151        N  0.45488716  0.28109723  0.17251791    -0.25700
N152        N  0.02701959  0.32625446  0.24949249    -0.25300
N153        N  0.46577544  0.19901441  0.24766509     0.01700
C154        C  0.06654183  0.26679864  0.14004684     0.43100
C155        C  0.05806919  0.23451372  0.31281390    -0.06600
N156        N  0.45809844  0.32183708  0.25580235    -0.25300
H157        H  0.05933707  0.34380738  0.28285667     0.07200
N158        N  0.04796239  0.24264792  0.14902661    -0.46600
H159        H  0.06235654  0.21037071  0.31732098     0.07200
C160        C  0.43423855  0.24993269  0.33731679     0.42900
C161        C  0.05581670  0.18163782  0.19932384    -0.06100
Co162      Co  0.50129798  0.22238382  0.27023881     0.73800
N163        N  0.05206492  0.28521154  0.32006615    -0.46300
C164        C  0.41446029  0.25965274  0.14683611     0.43200
N165        N  0.44540448  0.18081114  0.26243817    -0.46300
Co166      Co  0.49566984  0.30042628  0.27663370     0.73900
C167        C  0.43506969  0.33585657  0.27055139    -0.06600
C168        C  0.05094109  0.29398116  0.15253883    -0.06200
N169        N  0.46338311  0.19789543  0.21718476    -0.25700
N170        N  0.05000556  0.34485564  0.20638598    -0.46400
H171        H  0.41982521  0.31213322  0.15515133     0.07200
C172        C  0.44983635  0.22591803  0.32026717    -0.06600
Cl173      Cl  0.49542546  0.26421959  0.23307268    -0.49600
C174        C  0.06899298  0.26119306  0.33069686     0.43000
H175        H  0.43416250  0.16945852  0.18760894     0.07200
N176        N  0.44538922  0.27741701  0.32557273    -0.46300
C177        C  0.24985614  0.35836319  0.10037965     0.03500
C178        C  0.22524705  0.34559395  0.11898436    -0.12700
C179        C  0.20946300  0.36443645  0.13955576     0.01000
C180        C  0.22650909  0.38810271  0.15336382    -0.11200
C181        C  0.25188996  0.40206875  0.13697416     0.03500
C182        C  0.26374788  0.38703627  0.10986736    -0.10600
H183        H  0.21257389  0.32534108  0.11098235     0.09100
H184        H  0.21484177  0.40098334  0.17139276     0.06600
H185        H  0.28030115  0.39919126  0.09450439     0.06400
C186        C  0.24254961  0.12914207  0.06310008     0.03500
C187        C  0.26198525  0.11956159  0.08784235    -0.12700
C188        C  0.25855919  0.08913567  0.10038301     0.01000
C189        C  0.23788049  0.06849510  0.08580623    -0.11200
C190        C  0.21417767  0.07974897  0.06729388     0.03500
C191        C  0.21785320  0.10938785  0.05420159    -0.10600
H192        H  0.27771955  0.13606432  0.09849955     0.09100
H193        H  0.23517426  0.04525778  0.09541782     0.06600
H194        H  0.20060648  0.11743688  0.03800702     0.06400
C195        C  0.22548571  0.13040259  0.40283360     0.03500
C196        C  0.20416269  0.11318751  0.42193287    -0.12700
C197        C  0.19126759  0.08491577  0.41267324     0.01000
C198        C  0.20100856  0.07286683  0.38393803    -0.11200
C199        C  0.22228809  0.08904670  0.36386865     0.03500
C200        C  0.23478241  0.11805166  0.37364842    -0.10600
H201        H  0.19729663  0.12209819  0.44437254     0.09100
H202        H  0.19147933  0.05086040  0.37680855     0.06600
H203        H  0.25030153  0.13141538  0.35820136     0.06400
C204        C  0.21596515  0.41081822  0.35036654     0.03500
C205        C  0.23905875  0.39406016  0.36736344    -0.12700
C206        C  0.22981941  0.36567239  0.38332011     0.01000
C207        C  0.19995817  0.35388142  0.37625726    -0.11200
C208        C  0.17688724  0.37563552  0.37451619     0.03500
C209        C  0.18461858  0.40287419  0.35777048    -0.10600
H210        H  0.26251926  0.40345598  0.36935707     0.09100
H211        H  0.19284959  0.33127741  0.38546097     0.06600
H212        H  0.16667508  0.41944400  0.35389975     0.06400
N213        N  0.09413645  0.02969831  0.02502082    -0.36300
N214        N  0.08201058  0.46261991  0.08474493    -0.56800
N215        N  0.08553037  0.41656587  0.03522168    -0.36300
N216        N  0.08276946  0.45797906  0.47995371    -0.56800
C217        C  0.07925495  0.01925935  0.05114516     0.27300
C218        C  0.07806569  0.02029673  0.50529525     0.27300
C219        C  0.08737683  0.39835080  0.06118321     0.27300
C220        C  0.08970742  0.39398987  0.50600230     0.27300
C221        C  0.09009893  0.98686622  0.09560492     0.35900
C222        C  0.08900161  0.43855770  0.10318753     0.35900
C223        C  0.08474923  0.98467298  0.46446866     0.35900
C224        C  0.09084325  0.43375379  0.46271862     0.35900
C225        C  0.05080851  0.00549719  0.04394474    -0.21500
C226        C  0.05043890  0.00727557  0.51745812    -0.21500
C227        C  0.09030136  0.36789024  0.05229810    -0.21500
C228        C  0.08913252  0.36340253  0.51584103    -0.21500
C229        C  0.10250464  0.98017014  0.12433273    -0.22600
C230        C  0.10045841  0.44942621  0.13131437    -0.22600
C231        C  0.09302763  0.97577762  0.43526637    -0.22600
C232        C  0.10059138  0.44403395  0.43318467    -0.22600
C233        C  0.09511397  0.01487760  0.07910728    -0.17900
C234        C  0.09030683  0.01447325  0.47575104    -0.17900
C235        C  0.09637901  0.40379371  0.47487714    -0.17900
C236        C  0.09394132  0.40844558  0.09191092    -0.17900
H237        H  0.03442849  0.99376934  0.05981086     0.15000
H238        H  0.03209450  0.99575198  0.50467811     0.15000
H239        H  0.09368436  0.34811996  0.06751168     0.15000
H240        H  0.09116212  0.34329585  0.50139102     0.15000
H241        H  0.11291041  0.99632844  0.14034850     0.13300
H242        H  0.11001445  0.43590428  0.15009999     0.13200
H243        H  0.10298574  0.99080091  0.41767184     0.13300
H244        H  0.11023164  0.43054794  0.41458064     0.13200
H245        H  0.11705229  0.03830427  0.02316200     0.26500
H246        H  0.08585842  0.44050745  0.03462083     0.26500
C247        C  0.10113714  0.36449001  0.22888010     0.03500
C248        C  0.11312104  0.39108455  0.21190518    -0.12700
C249        C  0.14269946  0.40448900  0.22023385     0.01000
C250        C  0.15798172  0.39111299  0.24577310    -0.11200
C251        C  0.13980226  0.37338869  0.26677500     0.03500
C252        C  0.11928953  0.35280651  0.25309893    -0.10600
H253        H  0.09811076  0.40354724  0.19643587     0.09100
H254        H  0.17821473  0.40302039  0.25514808     0.06600
H255        H  0.11046468  0.33365616  0.26746534     0.06400
C256        C  0.37470850  0.09408855  0.25758307     0.03500
C257        C  0.38767372  0.12021815  0.24092489    -0.12700
C258        C  0.41596325  0.13410160  0.25107480     0.01000
C259        C  0.43111618  0.12077801  0.27649874    -0.11200
C260        C  0.41753107  0.09695727  0.29406956     0.03500
C261        C  0.38992743  0.08303608  0.28426040    -0.10600
H262        H  0.37519512  0.13043450  0.22177482     0.09100
H263        H  0.45326979  0.13023072  0.28425279     0.06600
H264        H  0.38008107  0.06383407  0.29793202     0.06400
C265        C  0.10403125  0.15454904  0.23143025     0.03500
C266        C  0.11713425  0.15864940  0.26112436    -0.12700
C267        C  0.14122894  0.14040099  0.27103755     0.01000
C268        C  0.16059468  0.12875550  0.24822240    -0.11200
C269        C  0.14625263  0.11699100  0.22163184     0.03500
C270        C  0.11750942  0.13105433  0.21228069    -0.10600
H271        H  0.10507191  0.17135368  0.27895074     0.09100
H272        H  0.18163963  0.11807927  0.25637765     0.06600
H273        H  0.10458957  0.12193089  0.19292710     0.06400
C274        C  0.36388015  0.42305237  0.25971753     0.03500
C275        C  0.37746379  0.39733281  0.24442720    -0.12700
C276        C  0.40560939  0.38469327  0.25596278     0.01000
C277        C  0.41966313  0.39899663  0.28155931    -0.11200
C278        C  0.40540580  0.42247671  0.29750921     0.03500
C279        C  0.37824029  0.43476396  0.28642939    -0.10600
H280        H  0.36572072  0.38665335  0.22507746     0.09100
H281        H  0.44152933  0.39088857  0.29046709     0.06600
H282        H  0.36849903  0.45390825  0.29887146     0.06400
N283        N  0.49189020  0.50792504  0.41037212    -0.36300
N284        N  0.54453575  0.05440027  0.39528273    -0.56800
N285        N  0.07883740  0.50334113  0.36764252    -0.36300
N286        N  0.53200253  0.45740040  0.39223224    -0.56800
C287        C  0.47881998  0.03595399  0.41589081     0.27300
C288        C  0.47313209  0.48343551  0.41784949     0.27300
C289        C  0.10031249  0.02534774  0.36679152     0.27300
C290        C  0.09348798  0.47698253  0.36096914     0.27300
C291        C  0.52055620  0.07381588  0.39803945     0.35900
C292        C  0.06605308  0.06954441  0.37729349     0.35900
C293        C  0.50555054  0.44085042  0.39879377     0.35900
C294        C  0.05207019  0.43767165  0.37641111     0.35900
C295        C  0.44748304  0.02924747  0.42181091    -0.21500
C296        C  0.44503839  0.49366470  0.42951094    -0.21500
C297        C  0.12914776  0.01320625  0.36028740    -0.21500
C298        C  0.12421223  0.48393971  0.35260306    -0.21500
C299        C  0.52975682  0.10304161  0.38748298    -0.22600
C300        C  0.05536686  0.09764671  0.36682342    -0.22600
C301        C  0.50816320  0.41113147  0.38781906    -0.22600
C302        C  0.03795955  0.40861835  0.37511781    -0.22600
C303        C  0.48907819  0.06405841  0.40146424    -0.17900
C304        C  0.47646108  0.45430833  0.40442989    -0.17900
C305        C  0.07963209  0.44697418  0.36006830    -0.17900
C306        C  0.09463291  0.05729639  0.36716099    -0.17900
H307        H  0.42874919  0.04547284  0.42187772     0.15000
H308        H  0.42429951  0.47970239  0.43478885     0.15000
H309        H  0.15091734  0.02575579  0.35661064     0.15000
H310        H  0.14175164  0.46797734  0.34566535     0.15000
H311        H  0.51619676  0.12345079  0.38554001     0.13300
H312        H  0.06736618  0.11481935  0.35215897     0.13200
H313        H  0.49009709  0.39324895  0.38772479     0.13300
H314        H  0.04588886  0.38867971  0.36276695     0.13200
H315        H  0.51195983  0.50709121  0.39714286     0.26500
H316        H  0.05535601  0.50521044  0.37174878     0.26500
C317        C  0.15050015  0.43800728  0.21575425     0.42800
N318        N  0.17496211  0.47866248  0.23283767     0.01700
C319        C  0.28985047  0.06527766  0.14828010    -0.06200
H320        H  0.30648687  0.44248111  0.16199200     0.07200
C321        C  0.31379537  0.45209923  0.27436541    -0.06500
Co322      Co  0.21671178  0.01162288  0.18423173     0.74200
N323        N  0.27165866  0.47643437  0.17184214    -0.25700
Co324      Co  0.29616299  0.01032029  0.19942342     0.74100
C325        C  0.33398906  0.43782909  0.25099250     0.42900
N326        N  0.24221586  0.47547642  0.29986938     0.01300
N327        N  0.30905681  0.47595573  0.23034733     0.01400
N328        N  0.23800051  0.06826999  0.14859530    -0.46600
H329        H  0.17102180  0.44624551  0.16628273     0.07200
N330        N  0.24183640  0.47803157  0.16511451     0.01700
N331        N  0.31501667  0.04373575  0.22954277     0.01400
C332        C  0.34418594  0.07908507  0.25023771     0.43100
N333        N  0.21238269  0.47585403  0.29272750    -0.25200
C334        C  0.17329027  0.07023517  0.19083090    -0.06100
N335        N  0.15613319  0.45537473  0.24114884    -0.46300
N336        N  0.33776856  0.06450643  0.22323049    -0.46500
C337        C  0.15488428  0.08381488  0.21636018     0.42800
N338        N  0.24691374  0.04646882  0.16786985     0.01700
N339        N  0.21831023  0.04294031  0.29311633    -0.25200
N340        N  0.18246136  0.47835397  0.20293725    -0.25700
N341        N  0.24822032  0.04280255  0.29999437     0.01300
H342        H  0.17925481  0.06595313  0.31347840     0.07200
H343        H  0.32327019  0.06800908  0.29898291     0.07300
N344        N  0.27740703  0.04464216  0.16946934    -0.25700
N345        N  0.30019763  0.47565671  0.25994671    -0.25300
N346        N  0.18018844  0.04375769  0.23332974     0.01700
C347        C  0.25686403  0.43574251  0.14314563     0.43100
C348        C  0.19767268  0.45271387  0.30867815    -0.06600
N349        N  0.30698136  0.04288781  0.25946910    -0.25300
H350        H  0.31200059  0.44710157  0.29912602     0.07200
N351        N  0.23227406  0.45421030  0.14844957    -0.46600
H352        H  0.17303341  0.44732211  0.30743804     0.07200
C353        C  0.22845349  0.07589707  0.33208137     0.42900
C354        C  0.16845678  0.45332122  0.19021829    -0.06100
Co355      Co  0.19842934  0.00983984  0.26313051     0.73800
N356        N  0.24871721  0.45327090  0.32064307    -0.46300
C357        C  0.26321896  0.08125704  0.13398184     0.43200
N358        N  0.16097791  0.06560047  0.24158469    -0.46300
Co359      Co  0.27257917  0.50974601  0.27996011     0.73900
C360        C  0.32360677  0.06457218  0.27406175    -0.06600
C361        C  0.28306256  0.45056814  0.15923904    -0.06200
N362        N  0.18752540  0.04537575  0.20344137    -0.25700
N363        N  0.32987061  0.45441980  0.22426009    -0.46400
H364        H  0.31437562  0.06796504  0.14246518     0.07200
C365        C  0.20414000  0.06296350  0.31193090    -0.06600
Cl366      Cl  0.24705390  0.01018514  0.23178429    -0.49600
C367        C  0.22155672  0.43779694  0.32776017     0.43000
H368        H  0.17533010  0.07787260  0.16673899     0.07200
N369        N  0.25498573  0.06146576  0.32355848    -0.46300
C370        C  0.41964856  0.43410142  0.32599926    -0.05100
C371        C  0.41124738  0.42088552  0.35520708    -0.32500
C372        C  0.42855203  0.42807298  0.38174167     0.36700
C373        C  0.45428253  0.44863137  0.37887109    -0.05500
C374        C  0.46148744  0.46279578  0.34982262    -0.32400
C375        C  0.44440338  0.45564343  0.32354236     0.36600
H376        H  0.39213928  0.40410373  0.35710239     0.17000
O377        O  0.42074502  0.41443242  0.40994432    -0.59900
H378        H  0.48145497  0.47851377  0.34731711     0.17000
O379        O  0.45259374  0.46904452  0.29528951    -0.60000
H380        H  0.47085821  0.45757018  0.28778233     0.44000
H381        H  0.43329649  0.39558101  0.41111274     0.43900
C382        C  0.11299797  0.07626758  0.34397104    -0.05100
C383        C  0.10610862  0.07039318  0.31301891    -0.32500
C384        C  0.11379383  0.09181496  0.28985037     0.36700
C385        C  0.13252463  0.11822551  0.29645607    -0.05500
C386        C  0.14103159  0.12355517  0.32725133    -0.32400
C387        C  0.13014695  0.10336077  0.35117334     0.36600
H388        H  0.09147442  0.05060472  0.30718128     0.17000
O389        O  0.10096749  0.08746119  0.26120114    -0.59900
H390        H  0.15439388  0.14418895  0.33293275     0.17000
O391        O  0.13453803  0.11135395  0.38135664    -0.60000
H392        H  0.11864712  0.12695302  0.38568039     0.44000
H393        H  0.07977760  0.09595453  0.26276703     0.43900
C394        C  0.46880909  0.07361490  0.37531461    -0.05100
C395        C  0.46298253  0.05168592  0.35208621    -0.32500
C396        C  0.44440580  0.05833815  0.32675919     0.36700
C397        C  0.43249971  0.08785975  0.32329916    -0.05500
C398        C  0.43816080  0.11007164  0.34628497    -0.32400
C399        C  0.45619559  0.10308098  0.37238919     0.36600
H400        H  0.47312860  0.02912060  0.35358287     0.17000
O401        O  0.43958310  0.03645416  0.30450659    -0.59900
H402        H  0.42899229  0.13301766  0.34363697     0.17000
O403        O  0.46110012  0.12464912  0.39500425    -0.60000
H404        H  0.46686961  0.14439572  0.38409535     0.44000
H405        H  0.42327709  0.02215894  0.31350105     0.43900
C406        C  0.12413993  0.39142828  0.29156357    -0.05100
C407        C  0.10773747  0.41812380  0.28332432    -0.32500
C408        C  0.09252154  0.43531615  0.30537774     0.36700
C409        C  0.09284131  0.42608962  0.33665669    -0.05500
C410        C  0.10583089  0.39783121  0.34479362    -0.32400
C411        C  0.12102881  0.38012496  0.32219021     0.36600
H412        H  0.10548841  0.42588384  0.25965250     0.17000
O413        O  0.07645589  0.46077381  0.29604809    -0.59900
H414        H  0.10377818  0.39003424  0.36854792     0.17000
O415        O  0.13275671  0.35198497  0.32988364    -0.60000
H416        H  0.11571574  0.33679868  0.32573168     0.44000
H417        H  0.09258302  0.47705735  0.29134670     0.43900
C418        C  0.11976510  0.38649230  0.45667579    -0.05100
C419        C  0.11067114  0.36421103  0.43508799    -0.32500
C420        C  0.13003502  0.35837939  0.40906225     0.36700
C421        C  0.15626306  0.37798689  0.40257412    -0.05500
C422        C  0.16640200  0.39804680  0.42593468    -0.32400
C423        C  0.14977266  0.40021281  0.45385702     0.36600
H424        H  0.08810152  0.35260293  0.43752792     0.17000
O425        O  0.12252592  0.33480846  0.38943799    -0.59900
H426        H  0.18795439  0.41140545  0.42286163     0.17000
O427        O  0.16051848  0.41997682  0.47613270    -0.60000
H428        H  0.17137995  0.40668930  0.49129188     0.44000
H429        H  0.10023334  0.33695858  0.38426362     0.43900
C430        C  0.16675364  0.06826573  0.43237426    -0.05100
C431        C  0.16983140  0.03676336  0.43903601    -0.32500
C432        C  0.14644545  0.01993559  0.45548037     0.36700
C433        C  0.11759103  0.03345934  0.46272384    -0.05500
C434        C  0.11516372  0.06533861  0.45779904    -0.32400
C435        C  0.14000129  0.08296453  0.44425966     0.36600
H436        H  0.19085964  0.02524706  0.43205571     0.17000
O437        O  0.15216459  0.99019773  0.46447038    -0.59900
H438        H  0.09392679  0.07657987  0.46438825     0.17000
O439        O  0.13734973  0.11435603  0.44205001    -0.60000
H440        H  0.14377544  0.12219136  0.46260764     0.44000
H441        H  0.15916243  0.99161886  0.48633206     0.43900
C442        C  0.18325384  0.06332202  0.06865975    -0.05100
C443        C  0.18158971  0.03098200  0.06718917    -0.32500
C444        C  0.15357269  0.01467734  0.07322905     0.36700
C445        C  0.12625525  0.03062089  0.08090173    -0.06400
C446        C  0.12780248  0.06281316  0.08206148    -0.32400
C447        C  0.15591000  0.07916367  0.07658316     0.36600
H448        H  0.20216522  0.01821733  0.06129708     0.17000
O449        O  0.15290250  0.98323591  0.07016654    -0.59900
H450        H  0.10675208  0.07520640  0.08630052     0.17000
O451        O  0.15640516  0.11058138  0.07971105    -0.60000
H452        H  0.16589505  0.11429895  0.10026165     0.44000
H453        H  0.14633504  0.97956138  0.04845255     0.43900
C454        C  0.17868511  0.37398960  0.12834635    -0.05100
C455        C  0.15043358  0.36244743  0.14153496    -0.32500
C456        C  0.12184740  0.37270342  0.13000809     0.36700
C457        C  0.12186869  0.39407170  0.10491502    -0.05500
C458        C  0.14996377  0.40501472  0.09187918    -0.32400
C459        C  0.17796032  0.39546827  0.10319868     0.36600
H460        H  0.15058785  0.34587545  0.16070080     0.17000
O461        O  0.09443013  0.36127457  0.14281397    -0.59900
H462        H  0.15016065  0.42169601  0.07276158     0.17000
O463        O  0.20463793  0.40826586  0.08997104    -0.60000
H464        H  0.20597953  0.39981125  0.06866438     0.44000
H465        H  0.08301983  0.37932676  0.15040364     0.43900
C466        C  0.42607235  0.12904791  0.46522578    -0.05100
C467        C  0.43425314  0.15757367  0.47835498    -0.32500
C468        C  0.42940761  0.18516392  0.46202807     0.36700
C469        C  0.41584563  0.18438617  0.43247710    -0.05500
C470        C  0.40471994  0.15611784  0.42087964    -0.32400
C471        C  0.40944117  0.12848857  0.43734530     0.36600
H472        H  0.44611459  0.15823660  0.50045515     0.17000
O473        O  0.43842240  0.21270561  0.47481934    -0.59900
H474        H  0.39283180  0.15547718  0.39879589     0.17000
O475        O  0.39939866  0.10102634  0.42511883    -0.60000
H476        H  0.37980967  0.09548980  0.43667665     0.44000
H477        H  0.46054248  0.21599870  0.46832448     0.43900
C478        C  0.04750570  0.14605548  0.46246897    -0.05100
C479        C  0.05910033  0.14585576  0.43195372    -0.32500
C480        C  0.06321504  0.17338170  0.41489351     0.36700
C481        C  0.05604016  0.20174944  0.42863371    -0.05500
C482        C  0.04381066  0.20190272  0.45912608    -0.32400
C483        C  0.03910459  0.17419922  0.47593267     0.36600
H484        H  0.06597562  0.12434236  0.42187836     0.17000
O485        O  0.07583633  0.17250528  0.38535010    -0.59900
H486        H  0.03888281  0.22357785  0.47016989     0.17000
O487        O  0.02739504  0.17493285  0.50583864    -0.60000
H488        H  0.00534054  0.16779340  0.50452743     0.44000
H489        H  0.09809226  0.17866998  0.38754218     0.43900
C490        C  0.42325165  0.12461613  0.10395152    -0.05100
C491        C  0.43122204  0.15445303  0.09317053    -0.32500
C492        C  0.41165797  0.17876776  0.09849102     0.36700
C493        C  0.38349193  0.17373050  0.11535458    -0.05500
C494        C  0.37618346  0.14432489  0.12806360    -0.32400
C495        C  0.39589561  0.11952488  0.12210123     0.36600
H496        H  0.45187629  0.15851772  0.07862984     0.17000
O497        O  0.41933933  0.20721478  0.08555758    -0.59900
H498        H  0.35493953  0.14045903  0.14167046     0.17000
O499        O  0.38799351  0.09047154  0.13317578    -0.60000
H500        H  0.37050140  0.08321303  0.12013470     0.44000
H501        H  0.43774561  0.21483520  0.09709785     0.43900
C502        C  0.10434831  0.18379211  0.12898664    -0.05100
C503        C  0.07531467  0.18848860  0.11534231    -0.32500
C504        C  0.05493813  0.16415677  0.10926733     0.36700
C505        C  0.06467529  0.13371052  0.11306649    -0.05500
C506        C  0.09390658  0.12840813  0.12654578    -0.32400
C507        C  0.11384962  0.15337233  0.13450878     0.36600
H508        H  0.06892013  0.21119384  0.10754827     0.17000
O509        O  0.02672038  0.17029711  0.09615574    -0.59900
H510        H  0.10207921  0.10514730  0.12901159     0.17000
O511        O  0.14344048  0.14765486  0.14445371    -0.60000
H512        H  0.14676348  0.16029497  0.16321160     0.44000
H513        H  0.03104116  0.17281793  0.07347031     0.43900
C514        C  0.24695461  0.15770022  0.54743732     0.42800
N515        N  0.23246037  0.19329684  0.51540929     0.01700
C516        C  0.33285125  0.29172766  0.92862687    -0.06200
H517        H  0.33375097  0.30361886  0.55014711     0.07200
C518        C  0.22460771  0.33742402  0.54959207    -0.06500
Co519      Co  0.28488193  0.22342613  0.97884952     0.74200
N520        N  0.31283344  0.27427561  0.51520860    -0.25700
Co521      Co  0.28766375  0.30207031  0.48433602     0.74100
C522        C  0.25295156  0.34903289  0.56450763     0.42900
N523        N  0.18387122  0.27165554  0.52548730     0.01300
N524        N  0.26477872  0.32355825  0.52282969     0.01400
N525        N  0.32373551  0.24111127  0.92260589    -0.46600
H526        H  0.29853292  0.16579466  0.53341675     0.07200
N527        N  0.31207132  0.24401243  0.51173681     0.01700
N528        N  0.25896833  0.33002168  0.95379002     0.01400
C529        C  0.23879575  0.36015896  0.91862587     0.43100
N530        N  0.18406393  0.24146576  0.52212051    -0.25200
C531        C  0.26555084  0.17629851  0.92540201    -0.06100
N532        N  0.22188190  0.17165569  0.53531700    -0.46300
N533        N  0.26586873  0.34677148  0.92781769    -0.46500
C534        C  0.23553594  0.16362692  0.91385586     0.42800
N535        N  0.30568601  0.25193821  0.94469536     0.01700
N536        N  0.18129513  0.24993586  0.95269116    -0.25200
N537        N  0.26310129  0.19373583  0.51269913    -0.25700
N538        N  0.17889775  0.27994520  0.95626478     0.01300
H539        H  0.15930928  0.21743192  0.92233378     0.07200
H540        H  0.19050269  0.35272450  0.94220423     0.07300
N541        N  0.30981948  0.28192119  0.94851316    -0.25700
N542        N  0.23400975  0.32187146  0.52473292    -0.25300
N543        N  0.22770989  0.20063160  0.94663309     0.01700
C544        C  0.33957268  0.25085263  0.55319836     0.43100
C545        C  0.16736195  0.22808186  0.54524821    -0.06600
N546        N  0.22889058  0.33006021  0.96024341    -0.25300
H547        H  0.20054543  0.34024667  0.55659281     0.07200
N548        N  0.32748235  0.22956946  0.53376188    -0.46600
H549        H  0.16296452  0.20349617  0.54801745     0.07200
C550        C  0.14754103  0.26865512  0.91830018     0.42900
C551        C  0.27441208  0.17224689  0.53216319    -0.06100
Co552      Co  0.20554377  0.22223201  0.98360449     0.73800
N553        N  0.16775418  0.27995780  0.55064869    -0.46300
C554        C  0.34256881  0.26423766  0.91145582     0.43200
N555        N  0.21369343  0.18007517  0.92878833    -0.46300
Co556      Co  0.20632749  0.29989485  0.49164491     0.73900
C557        C  0.21526970  0.34968701  0.94164598    -0.06600
C558        C  0.32984547  0.28088550  0.54073846    -0.06200
N559        N  0.25826236  0.19911949  0.94536948    -0.25700
N560        N  0.27715463  0.33910896  0.54664044    -0.46400
H561        H  0.34357615  0.31458451  0.92825464     0.07200
C562        C  0.16348868  0.24111133  0.92904005    -0.06600
Cl563      Cl  0.24624964  0.26076894  0.48480963    -0.49600
C564        C  0.15660518  0.25343249  0.56429350     0.43000
H565        H  0.28858246  0.16721886  0.92216456     0.07200
N566        N  0.15789646  0.29176417  0.93709420    -0.46300
C567        C  0.14156675  0.24957492  0.59554070     0.03500
C568        C  0.14743158  0.22183403  0.61168202    -0.12700
C569        C  0.12764358  0.21183048  0.63580132     0.01000
C570        C  0.11196058  0.23451484  0.65197242    -0.11200
C571        C  0.10107291  0.25997937  0.63481686     0.03500
C572        C  0.11700812  0.26829445  0.60647615    -0.10600
H573        H  0.16279562  0.20507088  0.60172513     0.09100
H574        H  0.09914367  0.22695785  0.67280399     0.06600
H575        H  0.10845504  0.28665627  0.59176237     0.06400
C576        C  0.35241983  0.24182547  0.58427704     0.03500
C577        C  0.37280489  0.26061395  0.60253565    -0.12700
C578        C  0.38493283  0.24828855  0.63083052     0.01000
C579        C  0.37427823  0.21880185  0.64101367    -0.11200
C580        C  0.36175535  0.19851833  0.61964021     0.03500
C581        C  0.34740572  0.21069113  0.59350296    -0.10600
H582        H  0.38099182  0.28294961  0.59367327     0.09100
H583        H  0.38398943  0.20860105  0.66187162     0.06600
H584        H  0.33641797  0.19446599  0.57788762     0.06400
C585        C  0.07857098  0.25829248  0.86324486     0.03500
C586        C  0.10655410  0.27140097  0.87529701    -0.12700
C587        C  0.11503539  0.26513443  0.90669961     0.01000
C588        C  0.09513342  0.24621968  0.92536166    -0.11200
C589        C  0.06974275  0.23046874  0.91267170     0.03500
C590        C  0.06080620  0.23750438  0.88226280    -0.10600
H591        H  0.12234572  0.28458736  0.85997478     0.09100
H592        H  0.10225723  0.23990671  0.94872706     0.06600
H593        H  0.04083523  0.22524989  0.87282928     0.06400
C594        C  0.41810956  0.24768225  0.86789030     0.03500
C595        C  0.39136193  0.26408523  0.87675049    -0.12700
C596        C  0.37520150  0.25591382  0.90475439     0.01000
C597        C  0.38701476  0.23278569  0.92429485    -0.11200
C598        C  0.41174731  0.21510092  0.91480999     0.03500
C599        C  0.42758608  0.22278774  0.88693975    -0.10600
H600        H  0.38201711  0.28121320  0.86105619     0.09100
H601        H  0.37472898  0.22612448  0.94576601     0.06600
H602        H  0.44695771  0.20882805  0.87990859     0.06400
N603        N  0.49408734  0.11496066  0.96363827    -0.36300
N604        N  0.04599275  0.10099117  0.53389624    -0.56800
N605        N  0.49315908  0.09398582  0.58079822    -0.36300
N606        N  0.44371984  0.08607168  0.53321892    -0.56800
C607        C  0.01706128  0.09989453  0.97711347     0.27300
C608        C  0.47182601  0.09414673  0.97295362     0.27300
C609        C  0.02390805  0.10112421  0.60020417     0.27300
C610        C  0.46678510  0.09393833  0.59886483     0.27300
C611        C  0.05870924  0.11487020  0.01108464     0.35900
C612        C  0.06461176  0.10885932  0.55750565     0.35900
C613        C  0.42883411  0.09332317  0.00905742     0.35900
C614        C  0.42486694  0.08653453  0.55845314     0.35900
C615        C  0.01250661  0.07014966  0.98831769    -0.21500
C616        C  0.48539598  0.06747046  0.98396622    -0.21500
C617        C  0.01515808  0.10235576  0.63139645    -0.21500
C618        C  0.47466983  0.10040811  0.62932555    -0.21500
C619        C  0.08584436  0.13026464  0.01907738    -0.22600
C620        C  0.09171679  0.12336288  0.54554679    -0.22600
C621        C  0.39835006  0.09647232  0.01864556    -0.22600
C622        C  0.39414189  0.08952306  0.54889240    -0.22600
C623        C  0.04356926  0.11825639  0.98249647    -0.17900
C624        C  0.44095157  0.10220088  0.97960566    -0.17900
C625        C  0.43537286  0.09465359  0.58847404    -0.17900
C626        C  0.05446158  0.11010515  0.58912497    -0.17900
H627        H  0.02962273  0.05643813  0.99926716     0.15000
H628        H  0.47368757  0.04745123  0.99462868     0.15000
H629        H  0.03012315  0.10726762  0.65087648     0.15000
H630        H  0.45880142  0.10331501  0.64886444     0.15000
H631        H  0.10143451  0.14379852  0.00387237     0.13300
H632        H  0.11047440  0.13392796  0.55849431     0.13200
H633        H  0.37865220  0.10176156  0.00424389     0.13300
H634        H  0.37378229  0.09274557  0.56349912     0.13200
H635        H  0.49084780  0.13782738  0.95679674     0.26500
H636        H  0.49393836  0.09170347  0.55677315     0.26500
C637        C  0.07426442  0.17256407  0.72748020     0.42800
N638        N  0.03448880  0.19958073  0.74145195     0.01700
C639        C  0.42885747  0.28783738  0.65518035    -0.06200
H640        H  0.05956265  0.31683579  0.65163540     0.07200
C641        C  0.05064741  0.34417955  0.75826154    -0.06500
Co642      Co  0.49408343  0.22634816  0.69039216     0.74200
N643        N  0.02526905  0.28230057  0.66713299    -0.25700
Co644      Co  0.49001544  0.30762530  0.69337993     0.74100
C645        C  0.06649922  0.35637551  0.72983808     0.42900
N646        N  0.03370937  0.27536288  0.79691564     0.01300
N647        N  0.02582479  0.32881614  0.71798655     0.01400
N648        N  0.43470526  0.23640396  0.65549198    -0.46600
H649        H  0.06124857  0.17800286  0.67547696     0.07200
N650        N  0.02463711  0.25195272  0.66483268     0.01700
N651        N  0.45597493  0.32820513  0.72296292     0.01400
C652        C  0.41803027  0.35430635  0.74334500     0.43100
N653        N  0.03598342  0.24535403  0.79328642    -0.25200
C654        C  0.44021239  0.17686956  0.71209827    -0.06100
N655        N  0.05838571  0.18415336  0.75187541    -0.46300
N656        N  0.43351609  0.34798994  0.71615528    -0.46500
C657        C  0.42868576  0.16569659  0.74317609     0.42800
N658        N  0.45747696  0.25015448  0.67053001     0.01700
N659        N  0.46809314  0.24335680  0.79922676    -0.25200
N660        N  0.03247204  0.19940503  0.71083965    -0.25700
N661        N  0.46490423  0.27330146  0.80187287     0.01300
H662        H  0.44865272  0.20392197  0.82426800     0.07200
H663        H  0.43052925  0.33736428  0.79243575     0.07300
N664        N  0.45507815  0.28053479  0.67085197    -0.25700
N665        N  0.02660033  0.32686866  0.74873545    -0.25300
N666        N  0.46606200  0.19966174  0.74837005     0.01700
C667        C  0.06727815  0.26579287  0.64020919     0.43100
C668        C  0.05798819  0.23492020  0.81226499    -0.06600
N669        N  0.45746277  0.32289811  0.75328699    -0.25300
H670        H  0.05748473  0.34640269  0.78230601     0.07200
N671        N  0.04855279  0.24167830  0.64902786    -0.46600
H672        H  0.06220577  0.21077253  0.81683876     0.07200
C673        C  0.43418998  0.25276576  0.83719886     0.42900
C674        C  0.05663369  0.18264652  0.69971709    -0.06100
Co675      Co  0.50126229  0.22427059  0.77038800     0.73800
N676        N  0.05230549  0.28573531  0.81925635    -0.46300
C677        C  0.41525370  0.25805476  0.64499836     0.43200
N678        N  0.44605495  0.18147122  0.76368429    -0.46300
Co679      Co  0.49511977  0.30247592  0.77506882     0.73900
C680        C  0.43372736  0.33638802  0.76740574    -0.06600
C681        C  0.05161874  0.29310918  0.65238451    -0.06200
N682        N  0.46314840  0.19821342  0.71793890    -0.25700
N683        N  0.04962367  0.34560371  0.70571317    -0.46400
H684        H  0.42035808  0.31086531  0.65155827     0.07200
C685        C  0.44955928  0.22861121  0.82011755    -0.06600
Cl686      Cl  0.49522066  0.26524798  0.73230115    -0.49600
C687        C  0.06909158  0.26163717  0.82995828     0.43000
H688        H  0.43311606  0.16952928  0.68923976     0.07200
N689        N  0.44517490  0.28014200  0.82492193    -0.46300
C690        C  0.25295713  0.36133111  0.59730847     0.03500
C691        C  0.22922215  0.34821009  0.61671647    -0.12700
C692        C  0.21263514  0.36719953  0.63644648     0.01000
C693        C  0.22866539  0.39203259  0.64934371    -0.11200
C694        C  0.25414398  0.40599616  0.63306524     0.03500
C695        C  0.26611710  0.39072620  0.60602099    -0.10600
H696        H  0.21733352  0.32717731  0.60956152     0.09100
H697        H  0.21652550  0.40494074  0.66701622     0.06600
H698        H  0.28239763  0.40290261  0.59038941     0.06400
C699        C  0.24522182  0.12645514  0.56202740     0.03500
C700        C  0.26395741  0.11799163  0.58753969    -0.12700
C701        C  0.26087827  0.08790227  0.60062844     0.01000
C702        C  0.24170475  0.06610254  0.58575448    -0.11200
C703        C  0.21855287  0.07622007  0.56599396     0.03500
C704        C  0.22171077  0.10571205  0.55237860    -0.10600
H705        H  0.27852940  0.13524368  0.59861308     0.09100
H706        H  0.23889260  0.04317296  0.59616660     0.06600
H707        H  0.20444556  0.11315155  0.53589490     0.06400
C708        C  0.22764612  0.13113670  0.90424582     0.03500
C709        C  0.20684036  0.11412812  0.92407080    -0.12700
C710        C  0.19361164  0.08586083  0.91525015     0.01000
C711        C  0.20204859  0.07365744  0.88620983    -0.11200
C712        C  0.22297066  0.08943345  0.86554905     0.03500
C713        C  0.23611614  0.11838527  0.87492141    -0.10600
H714        H  0.20024177  0.12337554  0.94647321     0.09100
H715        H  0.19149242  0.05194394  0.87925510     0.06600
H716        H  0.25131107  0.13152233  0.85897425     0.06400
C717        C  0.21492832  0.41317582  0.85204793     0.03500
C718        C  0.23782766  0.39648050  0.86915847    -0.12700
C719        C  0.22816547  0.36900685  0.88624001     0.01000
C720        C  0.19779976  0.35765225  0.88032218    -0.11200
C721        C  0.17517459  0.37979141  0.87771822     0.03500
C722        C  0.18346387  0.40626309  0.86000228    -0.10600
H723        H  0.26156629  0.40532334  0.87038084     0.09100
H724        H  0.19031820  0.33555748  0.89048437     0.06600
H725        H  0.16585607  0.42297757  0.85546280     0.06400
N726        N  0.09625143  0.03014012  0.52828228    -0.36300
N727        N  0.08195061  0.45739814  0.58148851    -0.56800
N728        N  0.08826268  0.41253345  0.53119002    -0.36300
N729        N  0.07856136  0.46149529  0.98398236    -0.56800
C730        C  0.08201806  0.02028736  0.55502437     0.27300
C731        C  0.07757486  0.01900791  0.00121061     0.27300
C732        C  0.08759719  0.39391251  0.55698608     0.27300
C733        C  0.08857449  0.39798113  0.01014164     0.27300
C734        C  0.09258364  0.98717480  0.59902180     0.35900
C735        C  0.08989857  0.43320620  0.59939108     0.35900
C736        C  0.08792526  0.98434839  0.96021324     0.35900
C737        C  0.08460543  0.43689471  0.96643118     0.35900
C738        C  0.05257817  0.00813135  0.54919998    -0.21500
C739        C  0.05003665  0.00472114  0.01204639    -0.21500
C740        C  0.08771878  0.36334127  0.54793418    -0.21500
C741        C  0.09133494  0.36772639  0.02024383    -0.21500
C742        C  0.10478643  0.98000085  0.62767864    -0.22600
C743        C  0.10152513  0.44381207  0.62752199    -0.22600
C744        C  0.09963993  0.97597156  0.93195709    -0.22600
C745        C  0.09095050  0.44656240  0.93589345    -0.22600
C746        C  0.09873063  0.01476953  0.58219587    -0.17900
C747        C  0.09160271  0.01406225  0.97231937    -0.17900
C748        C  0.09301230  0.40773299  0.97859114    -0.17900
C749        C  0.09487084  0.40327522  0.58768865    -0.17900
H750        H  0.03634609  0.99722390  0.56578477     0.15000
H751        H  0.03277654  0.99256972  0.99840235     0.15000
H752        H  0.08900557  0.34319968  0.56307966     0.15000
H753        H  0.09505337  0.34777082  0.00595144     0.15000
H754        H  0.11670266  0.99554182  0.64328877     0.13300
H755        H  0.11183320  0.43030962  0.64587659     0.13200
H756        H  0.11167364  0.99112267  0.91560540     0.13300
H757        H  0.09918342  0.43267458  0.91692288     0.13200
H758        H  0.11945672  0.03760157  0.52533258     0.26500
H759        H  0.09154237  0.43637602  0.53084896     0.26500
C760        C  0.10019923  0.36630259  0.72884797     0.03500
C761        C  0.11306937  0.39237128  0.71150071    -0.12700
C762        C  0.14332187  0.40473882  0.71935127     0.01000
C763        C  0.15822688  0.39094358  0.74494532    -0.11200
C764        C  0.13954012  0.37430924  0.76649503     0.03500
C765        C  0.11787767  0.35451425  0.75340930    -0.10600
H766        H  0.09849705  0.40505033  0.69576070     0.09100
H767        H  0.17903139  0.40214287  0.75395237     0.06600
H768        H  0.10856753  0.33583497  0.76810430     0.06400
C769        C  0.36957897  0.09760184  0.75915414     0.03500
C770        C  0.38482178  0.12258134  0.74225079    -0.12700
C771        C  0.41255752  0.13637262  0.75430313     0.01000
C772        C  0.42460766  0.12407769  0.78202093    -0.11200
C773        C  0.40931992  0.10072263  0.79895535     0.03500
C774        C  0.38240933  0.08728002  0.78732194    -0.10600
H775        H  0.37462912  0.13186631  0.72128606     0.09100
H776        H  0.44629245  0.13308311  0.79129658     0.06600
H777        H  0.37146133  0.06848239  0.80071907     0.06400
C778        C  0.10534797  0.15744282  0.73244364     0.03500
C779        C  0.11797254  0.16176836  0.76235392    -0.12700
C780        C  0.14203167  0.14363174  0.77269510     0.01000
C781        C  0.16193065  0.13228386  0.75014019    -0.11200
C782        C  0.14810058  0.12053434  0.72326667     0.03500
C783        C  0.11954733  0.13443363  0.71336598    -0.10600
H784        H  0.10538940  0.17424430  0.77999237     0.09100
H785        H  0.18281812  0.12154324  0.75861149     0.06600
H786        H  0.10705740  0.12523378  0.69375787     0.06400
C787        C  0.36334284  0.42319975  0.75683592     0.03500
C788        C  0.37619330  0.39715317  0.74154776    -0.12700
C789        C  0.40496455  0.38500508  0.75193890     0.01000
C790        C  0.42019933  0.40000977  0.77644118    -0.11200
C791        C  0.40646882  0.42372129  0.79247481     0.03500
C792        C  0.37883531  0.43565078  0.78242918    -0.10600
H793        H  0.36351797  0.38593405  0.72310004     0.09100
H794        H  0.44237414  0.39202648  0.78470103     0.06600
H795        H  0.36948013  0.45496401  0.79492944     0.06400
N796        N  0.49272169  0.50678422  0.90328307    -0.36300
N797        N  0.54175765  0.05497300  0.89375894    -0.56800
N798        N  0.07762305  0.50620179  0.86658309    -0.36300
N799        N  0.53449318  0.45653042  0.88866364    -0.56800
C800        C  0.47988866  0.03304732  0.91444306     0.27300
C801        C  0.47697704  0.48142690  0.91373167     0.27300
C802        C  0.10193677  0.02491486  0.86485004     0.27300
C803        C  0.09347420  0.48001861  0.86227204     0.27300
C804        C  0.51600840  0.07235887  0.89153071     0.35900
C805        C  0.06687382  0.06888093  0.87515296     0.35900
C806        C  0.50725956  0.44026174  0.89072675     0.35900
C807        C  0.05038414  0.44087462  0.87000019     0.35900
C808        C  0.45284349  0.02472512  0.93088324    -0.21500
C809        C  0.45194011  0.48995406  0.93201700    -0.21500
C810        C  0.13038628  0.01312908  0.85600373    -0.21500
C811        C  0.12499025  0.48721614  0.85891634    -0.21500
C812        C  0.52328920  0.09980276  0.87575350    -0.22600
C813        C  0.05602029  0.09671607  0.86403188    -0.22600
C814        C  0.50966630  0.41242054  0.87561252    -0.22600
C815        C  0.03504873  0.41362961  0.86219862    -0.22600
C816        C  0.48538736  0.06178668  0.89953123    -0.17900
C817        C  0.47855280  0.45335481  0.89839269    -0.17900
C818        C  0.08017985  0.45016483  0.85861019    -0.17900
C819        C  0.09575992  0.05681640  0.86546538    -0.17900
H820        H  0.43495412  0.04004639  0.93878277     0.15000
H821        H  0.43322944  0.47497610  0.94102512     0.15000
H822        H  0.15179637  0.02592498  0.85070839     0.15000
H823        H  0.14357929  0.47152808  0.85441049     0.15000
H824        H  0.50836842  0.11805945  0.86865876     0.13300
H825        H  0.06802695  0.11377390  0.84922952     0.13200
H826        H  0.49121019  0.39547634  0.87180239     0.13300
H827        H  0.04328616  0.39547622  0.84743022     0.13200
H828        H  0.50855809  0.50724111  0.88486693     0.26500
H829        H  0.05371155  0.50799778  0.86673964     0.26500
C830        C  0.15243136  0.43812090  0.71482634     0.42800
N831        N  0.17666682  0.47885858  0.73218441     0.01700
C832        C  0.28966031  0.06569525  0.64971338    -0.06200
H833        H  0.30891321  0.44595627  0.65945776     0.07200
C834        C  0.31366875  0.45192535  0.77303028    -0.06500
Co835      Co  0.21505993  0.01345749  0.68456981     0.74200
N836        N  0.27366180  0.47900967  0.67097064    -0.25700
Co837      Co  0.29443954  0.01114068  0.69996600     0.74100
C838        C  0.33340942  0.43797714  0.74897727     0.42900
N839        N  0.24259278  0.47555972  0.79971739     0.01300
N840        N  0.30975405  0.47762150  0.73002320     0.01400
N841        N  0.23787845  0.06971448  0.64868291    -0.46600
H842        H  0.17321112  0.44679642  0.66540723     0.07200
N843        N  0.24390178  0.48061801  0.66411810     0.01700
N844        N  0.31316336  0.04437382  0.73019247     0.01400
C845        C  0.33946791  0.08216773  0.75052575     0.43100
N846        N  0.21279583  0.47624303  0.79258573    -0.25200
C847        C  0.17364968  0.07317819  0.69224721    -0.06100
N848        N  0.15803779  0.45538630  0.74026856    -0.46300
N849        N  0.33473585  0.06638546  0.72383889    -0.46500
C850        C  0.15641728  0.08733052  0.71814547     0.42800
N851        N  0.24587740  0.04804439  0.66856923     0.01700
N852        N  0.21687051  0.04321200  0.79455320    -0.25200
N853        N  0.18435876  0.47880793  0.70230607    -0.25700
N854        N  0.24680681  0.04266612  0.80113068     0.01300
H855        H  0.17853684  0.06694507  0.81546793     0.07200
H856        H  0.31675972  0.07170623  0.79870340     0.07300
N857        N  0.27626886  0.04562007  0.67066590    -0.25700
N858        N  0.30074173  0.47644711  0.75959484    -0.25300
N859        N  0.17947302  0.04576824  0.73440197     0.01700
C860        C  0.25941128  0.43960230  0.63993280     0.43100
C861        C  0.19753816  0.45403257  0.80927745    -0.06600
N862        N  0.30438038  0.04370953  0.75987382    -0.25300
H863        H  0.31158898  0.44581856  0.79754033     0.07200
N864        N  0.23474274  0.45774744  0.64600678    -0.46600
H865        H  0.17264524  0.44974507  0.80883545     0.07200
C866        C  0.22811656  0.07589511  0.83369845     0.42900
C867        C  0.17058734  0.45365477  0.68940627    -0.06100
Co868      Co  0.19670178  0.01076915  0.76361548     0.73800
N869        N  0.24863711  0.45385716  0.82115592    -0.46300
C870        C  0.26383630  0.08177736  0.63454726     0.43200
N871        N  0.16181106  0.06867283  0.74320019    -0.46300
Co872      Co  0.27292821  0.51011382  0.78038099     0.73900
C873        C  0.31870156  0.06714326  0.77404407    -0.06600
C874        C  0.28536619  0.45385354  0.65712746    -0.06200
N875        N  0.18665393  0.04746612  0.70444665    -0.25700
N876        N  0.32979715  0.45573490  0.72301857    -0.46400
H877        H  0.31429676  0.06748386  0.64423831     0.07200
C878        C  0.20328958  0.06333585  0.81378176    -0.06600
Cl879      Cl  0.24521105  0.01108071  0.73219890    -0.49600
C880        C  0.22113461  0.43914507  0.82859801     0.43000
H881        H  0.17619009  0.08125057  0.66833251     0.07200
N882        N  0.25421782  0.06106972  0.82470861    -0.46300
C883        C  0.42088834  0.43520682  0.82077044    -0.05100
C884        C  0.41276145  0.42156183  0.84980257    -0.32500
C885        C  0.43005987  0.42866144  0.87627789     0.36700
C886        C  0.45530330  0.44974443  0.87356017    -0.05500
C887        C  0.46188792  0.46477972  0.84475145    -0.32400
C888        C  0.44491887  0.45751481  0.81844034     0.36600
H889        H  0.39406603  0.40431257  0.85153827     0.17000
O890        O  0.42309469  0.41406320  0.90420407    -0.59900
H891        H  0.48159549  0.48079945  0.84226930     0.17000
O892        O  0.45342739  0.47051405  0.79009470    -0.60000
H893        H  0.44283433  0.49054810  0.78923677     0.44000
H894        H  0.43306398  0.39372878  0.90296667     0.43900
C895        C  0.11423535  0.07639769  0.84293012    -0.05100
C896        C  0.10672929  0.07217082  0.81184935    -0.32500
C897        C  0.11386971  0.09484437  0.78977157     0.36700
C898        C  0.13284668  0.12079479  0.79739475    -0.05500
C899        C  0.14207793  0.12439698  0.82827118    -0.32400
C900        C  0.13155422  0.10299824  0.85128113     0.36600
H901        H  0.09192186  0.05275959  0.80527712     0.17000
O902        O  0.10059511  0.09193790  0.76114331    -0.59900
H903        H  0.15578625  0.14454107  0.83477778     0.17000
O904        O  0.13631840  0.10938083  0.88181847    -0.60000
H905        H  0.11915269  0.12311242  0.88767982     0.44000
H906        H  0.07945481  0.10039562  0.76349557     0.43900
C907        C  0.46001261  0.07167312  0.87854379    -0.05100
C908        C  0.44907618  0.05012696  0.85683753    -0.32500
C909        C  0.43058796  0.05884950  0.83209666     0.36700
C910        C  0.42275107  0.08983117  0.82844187    -0.05500
C911        C  0.43135846  0.11116316  0.85136730    -0.32400
C912        C  0.45015147  0.10227502  0.87635843     0.36600
H913        H  0.45660282  0.02663121  0.85782119     0.17000
O914        O  0.42315172  0.03762424  0.80982771    -0.59900
H915        H  0.42483052  0.13506027  0.84894438     0.17000
O916        O  0.45997270  0.12344943  0.89786108    -0.60000
H917        H  0.46469135  0.14318596  0.88649454     0.44000
H918        H  0.40713138  0.02360441  0.81974525     0.43900
C919        C  0.12537786  0.39326766  0.79152666    -0.05100
C920        C  0.11144924  0.42132080  0.78326270    -0.32500
C921        C  0.09807886  0.43999003  0.80515241     0.36700
C922        C  0.09599462  0.43008965  0.83618469    -0.05500
C923        C  0.10612959  0.40057065  0.84440103    -0.32400
C924        C  0.12086395  0.38204848  0.82216284     0.36600
H925        H  0.10922838  0.42885518  0.75955208     0.17000
O926        O  0.08498564  0.46706183  0.79558409    -0.59900
H927        H  0.10187119  0.39211659  0.86778943     0.17000
O928        O  0.13013101  0.35301287  0.83018068    -0.60000
H929        H  0.11147406  0.33942384  0.82740338     0.44000
H930        H  0.10270980  0.48201783  0.79263337     0.43900
C931        C  0.11695204  0.39206942  0.95928750    -0.05100
C932        C  0.10886602  0.36867021  0.93846797    -0.32500
C933        C  0.12824182  0.36301436  0.91232971     0.36700
C934        C  0.15392472  0.38313696  0.90525589    -0.05500
C935        C  0.16296563  0.40473849  0.92763605    -0.32400
C936        C  0.14595199  0.40768083  0.95526751     0.36600
H937        H  0.08704726  0.35583387  0.94167912     0.17000
O938        O  0.12154537  0.33865986  0.89336499    -0.59900
H939        H  0.18396648  0.41884886  0.92402685     0.17000
O940        O  0.15573584  0.42895720  0.97652196    -0.60000
H941        H  0.16508921  0.41674202  0.99355004     0.44000
H942        H  0.09933172  0.34030212  0.88769901     0.43900
C943        C  0.16945112  0.06949359  0.93529309    -0.05100
C944        C  0.17303191  0.03822703  0.94263966    -0.32500
C945        C  0.14898568  0.02097213  0.95742373     0.36700
C946        C  0.11926725  0.03380769  0.96184517    -0.05500
C947        C  0.11653103  0.06573548  0.95723253    -0.32400
C948        C  0.14194739  0.08384202  0.94560603     0.36600
H949        H  0.19469632  0.02715895  0.93699038     0.17000
O950        O  0.15468051  0.99135120  0.96699021    -0.59900
H951        H  0.09467906  0.07659383  0.96250680     0.17000
O952        O  0.13913549  0.11522772  0.94326355    -0.60000
H953        H  0.14139462  0.12281595  0.96480577     0.44000
H954        H  0.15722570  0.99245086  0.98988323     0.43900
C955        C  0.18759684  0.06031366  0.56863180    -0.05100
C956        C  0.18475951  0.02822579  0.56507402    -0.32500
C957        C  0.15649190  0.01251503  0.57194742     0.36700
C958        C  0.13054161  0.02888553  0.58285286    -0.06400
C959        C  0.13338406  0.06075907  0.58599206    -0.32400
C960        C  0.16166964  0.07640960  0.57994439     0.36600
H961        H  0.20449638  0.01537432  0.55687279     0.17000
O962        O  0.15391080  0.98154937  0.56613924    -0.59900
H963        H  0.11297255  0.07349542  0.59176117     0.17000
O964        O  0.16382052  0.10740076  0.58571961    -0.60000
H965        H  0.17450560  0.10894775  0.60598342     0.44000
H966        H  0.14540628  0.98014293  0.54482921     0.43900
C967        C  0.18134934  0.37461234  0.62491999    -0.05100
C968        C  0.15375302  0.36230108  0.63878124    -0.32500
C969        C  0.12461960  0.36998885  0.62654231     0.36700
C970        C  0.12340559  0.38915918  0.59973506    -0.05500
C971        C  0.15097845  0.40054306  0.58581169    -0.32400
C972        C  0.17949347  0.39415822  0.59833726     0.36600
H973        H  0.15480734  0.34733808  0.65918707     0.17000
O974        O  0.09782988  0.35867710  0.64072906    -0.59900
H975        H  0.15028609  0.41611406  0.56578581     0.17000
O976        O  0.20544017  0.40864197  0.58528240    -0.60000
H977        H  0.20743895  0.40055164  0.56387468     0.44000
H978        H  0.08744500  0.37675284  0.64962284     0.43900
C979        C  0.42906613  0.13111753  0.96549141    -0.05100
C980        C  0.43962929  0.15970950  0.97691445    -0.32500
C981        C  0.43452819  0.18714080  0.96033374     0.36700
C982        C  0.41790016  0.18634362  0.93243347    -0.05500
C983        C  0.40447622  0.15819302  0.92281482    -0.32400
C984        C  0.40962752  0.13065143  0.93950027     0.36600
H985        H  0.45347742  0.16045674  0.99779334     0.17000
O986        O  0.44609389  0.21457452  0.97136910    -0.59900
H987        H  0.39039566  0.15753153  0.90208799     0.17000
O988        O  0.39743187  0.10322111  0.92907170    -0.60000
H989        H  0.37506407  0.10318009  0.93518774     0.44000
H990        H  0.46781418  0.21633783  0.96319330     0.43900
C991        C  0.04812174  0.14736735  0.96432254    -0.05100
C992        C  0.05693730  0.14599715  0.93292859    -0.32500
C993        C  0.06190380  0.17303560  0.91519208     0.36700
C994        C  0.05789264  0.20209127  0.92892838    -0.05500
C995        C  0.04792752  0.20338886  0.96015613    -0.32400
C996        C  0.04266598  0.17628427  0.97776769     0.36600
H997        H  0.06103209  0.12386220  0.92255338     0.17000
O998        O  0.07225410  0.17082754  0.88492005    -0.59900
H999        H  0.04508812  0.22551434  0.97109889     0.17000
O1000       O  0.03289625  0.17830117  0.00824668    -0.60000
H1001       H  0.00984928  0.17632212  0.00771652     0.44000
H1002       H  0.09513870  0.17439200  0.88562264     0.43900
C1003       C  0.41747027  0.12014843  0.60192670    -0.05100
C1004       C  0.42600330  0.14954838  0.59038791    -0.32500
C1005       C  0.40776618  0.17460675  0.59633268     0.36700
C1006       C  0.38019274  0.17082604  0.61438279    -0.05500
C1007       C  0.37201260  0.14168495  0.62735539    -0.32400
C1008       C  0.39054533  0.11609397  0.62091770     0.36600
H1009       H  0.44638543  0.15280845  0.57529623     0.17000
O1010       O  0.41637306  0.20272339  0.58321946    -0.59900
H1011       H  0.35117794  0.13872676  0.64176673     0.17000
O1012       O  0.38215714  0.08746688  0.63277914    -0.60000
H1013       H  0.36594329  0.07937502  0.61866029     0.44000
H1014       H  0.43442174  0.21019671  0.59538642     0.43900
C1015       C  0.10842784  0.18405295  0.62831392    -0.05100
C1016       C  0.08072158  0.18893717  0.61219371    -0.32500
C1017       C  0.06203257  0.16462304  0.60245171     0.36700
C1018       C  0.07105074  0.13414213  0.60760967    -0.05500
C1019       C  0.09861680  0.12871170  0.62409513    -0.32400
C1020       C  0.11788421  0.15355292  0.63363658     0.36600
H1021       H  0.07422460  0.21190226  0.60527687     0.17000
O1022       O  0.03585107  0.17087181  0.58574571    -0.59900
H1023       H  0.10582736  0.10548594  0.62871990     0.17000
O1024       O  0.14677292  0.14760559  0.64536402    -0.60000
H1025       H  0.14953558  0.16083850  0.66377819     0.44000
H1026       H  0.04351000  0.17558512  0.56423434     0.43900
C1027       C  0.24575463  0.65846474  0.04658956     0.42800
N1028       N  0.23189943  0.69433628  0.01437498     0.01700
C1029       C  0.33458944  0.78996494  0.43008286    -0.06200
H1030       H  0.33299131  0.80452259  0.05052192     0.07200
C1031       C  0.22429018  0.83709805  0.04999768    -0.06500
Co1032     Co  0.28514318  0.72120883  0.47935700     0.74200
N1033       N  0.31267519  0.77516421  0.01524445    -0.25700
Co1034     Co  0.28759922  0.80305366  0.98432237     0.74100
C1035       C  0.25268298  0.84775626  0.06543972     0.42900
N1036       N  0.18325161  0.77274324  0.02389994     0.01300
N1037       N  0.26449726  0.82392993  0.02288815     0.01400
N1038       N  0.32735782  0.73902100  0.42444105    -0.46600
H1039       H  0.29756360  0.66649349  0.03335621     0.07200
N1040       N  0.31185905  0.74490163  0.01185616     0.01700
N1041       N  0.26227300  0.82859614  0.45374916     0.01400
C1042       C  0.24291246  0.85944604  0.41868328     0.43100
N1043       N  0.18348803  0.74261859  0.02024899    -0.25200
C1044       C  0.26526813  0.67506497  0.42515667    -0.06100
N1045       N  0.22095537  0.67261482  0.03404558    -0.46300
N1046       N  0.26964075  0.84526092  0.42781417    -0.46500
C1047       C  0.23508360  0.66286362  0.41356786     0.42800
N1048       N  0.30811437  0.74946386  0.44583781     0.01700
N1049       N  0.18353620  0.75023287  0.45116183    -0.25200
N1050       N  0.26258692  0.69468213  0.01216592    -0.25700
N1051       N  0.18189636  0.78030681  0.45451338     0.01300
H1052       H  0.16323419  0.71845978  0.41899482     0.07200
H1053       H  0.19458909  0.85308363  0.44231903     0.07300
N1054       N  0.31163476  0.77952716  0.44960650    -0.25700
N1055       N  0.23370257  0.82240175  0.02461314    -0.25300
N1056       N  0.22779364  0.69957801  0.44669873     0.01700
C1057       C  0.33872504  0.75176668  0.05385216     0.43100
C1058       C  0.16620698  0.72902063  0.04277798    -0.06600
N1059       N  0.23225106  0.82937927  0.45999819    -0.25300
H1060       H  0.20023119  0.83978839  0.05708687     0.07200
N1061       N  0.32681781  0.73046472  0.03427194    -0.46600
H1062       H  0.16164675  0.70442488  0.04508699     0.07200
C1063       C  0.15285134  0.76999962  0.41435470     0.42900
C1064       C  0.27349583  0.67304265  0.03175881    -0.06100
Co1065     Co  0.20559717  0.72195774  0.48303697     0.73800
N1066       N  0.16655487  0.78083898  0.04872174    -0.46300
C1067       C  0.34547008  0.76287054  0.41329908     0.43200
N1068       N  0.21347307  0.67935192  0.42872003    -0.46300
Co1069     Co  0.20622447  0.80122510  0.99089066     0.73900
C1070       C  0.21923302  0.84954631  0.44167661    -0.06600
C1071       C  0.32930630  0.78178647  0.04104314    -0.06200
N1072       N  0.25833026  0.69775269  0.44538128    -0.25700
N1073       N  0.27688707  0.83844318  0.04729362    -0.46400
H1074       H  0.34472493  0.81306761  0.42998344     0.07200
C1075       C  0.16741806  0.74200671  0.42613525    -0.06600
Cl1076     Cl  0.24621569  0.76195674  0.98420865    -0.49600
C1077       C  0.15507194  0.75419579  0.06178206     0.43000
H1078       H  0.28815518  0.66570829  0.42177275     0.07200
N1079       N  0.16277372  0.79274314  0.43382602    -0.46300
C1080       C  0.13942229  0.75013890  0.09259686     0.03500
C1081       C  0.14420576  0.72199520  0.10842845    -0.12700
C1082       C  0.12446795  0.71270894  0.13285382     0.01000
C1083       C  0.10983734  0.73595522  0.14907798    -0.11200
C1084       C  0.09953495  0.76164446  0.13188908     0.03500
C1085       C  0.11553884  0.76957237  0.10356018    -0.10600
H1086       H  0.15884456  0.70471968  0.09831234     0.09100
H1087       H  0.09720546  0.72897192  0.17018446     0.06600
H1088       H  0.10758479  0.78830242  0.08895216     0.06400
C1089       C  0.35098819  0.74290238  0.08534399     0.03500
C1090       C  0.37213333  0.76128416  0.10324650    -0.12700
C1091       C  0.38388742  0.74909121  0.13181646     0.01000
C1092       C  0.37190436  0.72035959  0.14276056    -0.11200
C1093       C  0.35865594  0.69998876  0.12181357     0.03500
C1094       C  0.34479930  0.71212504  0.09529510    -0.10600
H1095       H  0.38125933  0.78307049  0.09384197     0.09100
H1096       H  0.38141100  0.71028117  0.16378762     0.06600
H1097       H  0.33326047  0.69598781  0.07997391     0.06400
C1098       C  0.08238014  0.76117411  0.36033261     0.03500
C1099       C  0.11136740  0.77314262  0.37138261    -0.12700
C1100       C  0.12032085  0.76698216  0.40271198     0.01000
C1101       C  0.10025600  0.74899526  0.42196570    -0.11200
C1102       C  0.07467781  0.73325542  0.40982453     0.03500
C1103       C  0.06475582  0.74073748  0.37987454    -0.10600
H1104       H  0.12725049  0.78558390  0.35555636     0.09100
H1105       H  0.10765407  0.74289952  0.44529894     0.06600
H1106       H  0.04424503  0.72888411  0.37108256     0.06400
C1107       C  0.42105830  0.74635219  0.37022917     0.03500
C1108       C  0.39380489  0.76243147  0.37813058    -0.12700
C1109       C  0.37867278  0.75653147  0.40720807     0.01000
C1110       C  0.39221577  0.73664608  0.42887827    -0.11200
C1111       C  0.41691085  0.71849645  0.42020941     0.03500
C1112       C  0.43168664  0.72364387  0.39116861    -0.10600
H1113       H  0.38325033  0.77735339  0.36101621     0.09100
H1114       H  0.38035102  0.73153160  0.45097598     0.06600
H1115       H  0.45068347  0.70903165  0.38448152     0.06400
N1116       N  0.48968535  0.61333068  0.46578439    -0.36300
N1117       N  0.04427582  0.60200672  0.03179602    -0.56800
N1118       N  0.48863863  0.59348367  0.08243465    -0.36300
N1119       N  0.43739373  0.58858424  0.03713943    -0.56800
C1120       C  0.02476383  0.60269847  0.47193363     0.27300
C1121       C  0.46653867  0.59333709  0.47475181     0.27300
C1122       C  0.02027635  0.60181647  0.09786838     0.27300
C1123       C  0.46309685  0.59377775  0.10173877     0.27300
C1124       C  0.06763727  0.61341914  0.50605146     0.35900
C1125       C  0.06224182  0.60894226  0.05623487     0.35900
C1126       C  0.42335172  0.59223624  0.51079653     0.35900
C1127       C  0.41931001  0.58870719  0.06289495     0.35900
C1128       C  0.01807095  0.57277176  0.48171888    -0.21500
C1129       C  0.47869609  0.56534662  0.48384338    -0.21500
C1130       C  0.01060111  0.60393623  0.12872026    -0.21500
C1131       C  0.47264655  0.59979046  0.13182472    -0.21500
C1132       C  0.09611289  0.62610608  0.51407513    -0.22600
C1133       C  0.09043204  0.62213096  0.04544959    -0.22600
C1134       C  0.39301928  0.59626498  0.52042422    -0.22600
C1135       C  0.38851759  0.59351541  0.05419464    -0.22600
C1136       C  0.05266211  0.61882929  0.47757960    -0.17900
C1137       C  0.43633441  0.60265468  0.48226149    -0.17900
C1138       C  0.43112444  0.59524470  0.09289534    -0.17900
C1139       C  0.05097503  0.61083684  0.08744832    -0.17900
H1140       H  0.03428922  0.55667453  0.49074254     0.15000
H1141       H  0.46609298  0.54537712  0.49354155     0.15000
H1142       H  0.02486676  0.60977975  0.14846546     0.15000
H1143       H  0.45782838  0.60275478  0.15215743     0.15000
H1144       H  0.11251949  0.63876261  0.49903528     0.13300
H1145       H  0.10913594  0.63163838  0.05922993     0.13200
H1146       H  0.37383777  0.60384633  0.50639816     0.13300
H1147       H  0.36857201  0.59682085  0.06930581     0.13200
H1148       H  0.48763070  0.63671376  0.46032626     0.26500
H1149       H  0.48840473  0.59140673  0.05838949     0.26500
C1150       C  0.07490567  0.67569473  0.22639235     0.42800
N1151       N  0.03516422  0.70269900  0.24068176     0.01700
C1152       C  0.42934485  0.78673234  0.15626214    -0.06200
H1153       H  0.05918225  0.81926574  0.14880475     0.07200
C1154       C  0.05304801  0.84511209  0.25734263    -0.06500
Co1155     Co  0.49383710  0.72332783  0.18925635     0.74200
N1156       N  0.02533560  0.78504756  0.16585605    -0.25700
Co1157     Co  0.49130360  0.80424796  0.19411510     0.74100
C1158       C  0.06961337  0.85604262  0.22896413     0.42900
N1159       N  0.03475330  0.77842224  0.29597710     0.01300
N1160       N  0.02736761  0.83120215  0.21698064     0.01400
N1161       N  0.43406354  0.73519560  0.15496397    -0.46600
H1162       H  0.06121516  0.68086798  0.17455327     0.07200
N1163       N  0.02429826  0.75472457  0.16358772     0.01700
N1164       N  0.45801924  0.82480728  0.22428893     0.01400
C1165       C  0.42197572  0.85299208  0.24491128     0.43100
N1166       N  0.03683336  0.74844011  0.29227457    -0.25200
C1167       C  0.43945444  0.67449591  0.21044381    -0.06100
N1168       N  0.05925507  0.68738358  0.25092569    -0.46300
N1169       N  0.43650235  0.84556246  0.21761462    -0.46500
C1170       C  0.42764117  0.66324565  0.24134717     0.42800
N1171       N  0.45738964  0.74804729  0.17004425     0.01700
N1172       N  0.46885443  0.73875825  0.29982719    -0.25200
N1173       N  0.03288402  0.70246331  0.21008047    -0.25700
N1174       N  0.46640694  0.76883211  0.30228170     0.01300
H1175       H  0.44964369  0.70014254  0.32665308     0.07200
H1176       H  0.43490332  0.83656704  0.29411932     0.07300
N1177       N  0.45563493  0.77843384  0.17126173    -0.25700
N1178       N  0.02809440  0.82933052  0.24773667    -0.25300
N1179       N  0.46545073  0.69642106  0.24713902     0.01700
C1180       C  0.06598197  0.76808438  0.13727729     0.43100
C1181       C  0.05967826  0.73804382  0.31024020    -0.06600
N1182       N  0.45979552  0.81964130  0.25463491    -0.25300
H1183       H  0.06014027  0.84659715  0.28137347     0.07200
N1184       N  0.04722046  0.74420172  0.14659727    -0.46600
H1185       H  0.06436012  0.71391845  0.31433157     0.07200
C1186       C  0.43638763  0.74963704  0.33893078     0.42900
C1187       C  0.05692238  0.68564234  0.19880566    -0.06100
Co1188     Co  0.50120682  0.71936884  0.26967771     0.73800
N1189       N  0.05432088  0.78882538  0.31750523    -0.46300
C1190       C  0.41498289  0.75759666  0.14528027     0.43200
N1191       N  0.44504687  0.67850769  0.26215946    -0.46300
Co1192     Co  0.49695448  0.79759140  0.27559725     0.73900
C1193       C  0.43733699  0.83484762  0.26906631    -0.06600
C1194       C  0.05119364  0.79557240  0.15012687    -0.06200
N1195       N  0.46267019  0.69537176  0.21664772    -0.25700
N1196       N  0.05222322  0.84636004  0.20472892    -0.46400
H1197       H  0.42123416  0.81002221  0.15359752     0.07200
C1198       C  0.45082480  0.72472921  0.32183706    -0.06600
Cl1199     Cl  0.49590525  0.76119375  0.23217746    -0.49600
C1200       C  0.07162667  0.76474336  0.32744525     0.43000
H1201       H  0.43231826  0.66755902  0.18746424     0.07200
N1202       N  0.44763734  0.77644064  0.32578850    -0.46300
C1203       C  0.25282049  0.85887169  0.09855917     0.03500
C1204       C  0.22846620  0.84612510  0.11743502    -0.12700
C1205       C  0.21277344  0.86515857  0.13782745     0.01000
C1206       C  0.23005136  0.88860735  0.15173378    -0.11200
C1207       C  0.25572191  0.90232744  0.13552221     0.03500
C1208       C  0.26714390  0.88737254  0.10813552    -0.10600
H1209       H  0.21568575  0.82588438  0.10955537     0.09100
H1210       H  0.21851843  0.90144870  0.16986323     0.06600
H1211       H  0.28368226  0.89946969  0.09271219     0.06400
C1212       C  0.24364205  0.62708304  0.06120481     0.03500
C1213       C  0.26249841  0.61794703  0.08652020    -0.12700
C1214       C  0.25947500  0.58746338  0.09893015     0.01000
C1215       C  0.24037165  0.56614806  0.08342401    -0.11200
C1216       C  0.21671525  0.57693819  0.06466841     0.03500
C1217       C  0.21971998  0.60672531  0.05167305    -0.10600
H1218       H  0.27722572  0.63487777  0.09786344     0.09100
H1219       H  0.23779188  0.54290199  0.09311240     0.06600
H1220       H  0.20213347  0.61460685  0.03575732     0.06400
C1221       C  0.22695206  0.63050324  0.40397792     0.03500
C1222       C  0.20747421  0.61290280  0.42456838    -0.12700
C1223       C  0.19409151  0.58462801  0.41588107     0.01000
C1224       C  0.20120691  0.57296272  0.38628340    -0.11200
C1225       C  0.22084168  0.58945744  0.36493732     0.03500
C1226       C  0.23393483  0.61844124  0.37405532    -0.10600
H1227       H  0.20196243  0.62175146  0.44741951     0.09100
H1228       H  0.19061667  0.55119602  0.37948773     0.06600
H1229       H  0.24811045  0.63204486  0.35757886     0.06400
C1230       C  0.21872384  0.91312603  0.35305641     0.03500
C1231       C  0.24172826  0.89602402  0.36955690    -0.12700
C1232       C  0.23211606  0.86840873  0.38637653     0.01000
C1233       C  0.20149724  0.85744177  0.38078496    -0.11200
C1234       C  0.17900176  0.87983275  0.37891193     0.03500
C1235       C  0.18728048  0.90643164  0.36144311    -0.10600
H1236       H  0.26558673  0.90459299  0.37043711     0.09100
H1237       H  0.19400322  0.83525834  0.39070511     0.06600
H1238       H  0.16959339  0.92301929  0.35696323     0.06400
N1239       N  0.09548653  0.53141968  0.02946090    -0.36300
N1240       N  0.08266581  0.96053824  0.08055753    -0.56800
N1241       N  0.08947556  0.91505186  0.03097994    -0.36300
N1242       N  0.08017933  0.95970982  0.48357718    -0.56800
C1243       C  0.08084535  0.52199136  0.05615421     0.27300
C1244       C  0.07923247  0.51795864  0.50356647     0.27300
C1245       C  0.09055731  0.89693473  0.05709667     0.27300
C1246       C  0.08991146  0.89626698  0.51036257     0.27300
C1247       C  0.09083042  0.48847605  0.09989884     0.35900
C1248       C  0.09161710  0.93704735  0.09881259     0.35900
C1249       C  0.08937097  0.48347239  0.46209302     0.35900
C1250       C  0.08671797  0.93497942  0.46639578     0.35900
C1251       C  0.05125457  0.51037313  0.05015943    -0.21500
C1252       C  0.05109149  0.50457149  0.51387008    -0.21500
C1253       C  0.09229435  0.86629121  0.04859395    -0.21500
C1254       C  0.09287505  0.86609308  0.52061086    -0.21500
C1255       C  0.10231687  0.48108666  0.12882291    -0.22600
C1256       C  0.10297106  0.94852979  0.12669358    -0.22600
C1257       C  0.10059931  0.47547472  0.43341147    -0.22600
C1258       C  0.09336828  0.94434456  0.43585128    -0.22600
C1259       C  0.09714030  0.51631296  0.08354778    -0.17900
C1260       C  0.09340465  0.51291419  0.47470390    -0.17900
C1261       C  0.09521114  0.90602730  0.47894158    -0.17900
C1262       C  0.09736639  0.90711218  0.08765074    -0.17900
H1263       H  0.03472290  0.49985352  0.06669142     0.15000
H1264       H  0.03367138  0.49314582  0.49983063     0.15000
H1265       H  0.09500652  0.84656147  0.06402582     0.15000
H1266       H  0.09744468  0.84620363  0.50648397     0.15000
H1267       H  0.11330869  0.49662937  0.14506868     0.13300
H1268       H  0.11374495  0.93565059  0.14526124     0.13200
H1269       H  0.11161602  0.49089084  0.41647664     0.13300
H1270       H  0.10204986  0.93037702  0.41714097     0.13200
H1271       H  0.11880983  0.53850134  0.02660561     0.26500
H1272       H  0.09111637  0.93901245  0.03008323     0.26500
C1273       C  0.10362128  0.86423800  0.22829229     0.03500
C1274       C  0.11718780  0.89019735  0.21154936    -0.12700
C1275       C  0.14670618  0.90271029  0.22106088     0.01000
C1276       C  0.16051651  0.88910403  0.24739042    -0.11200
C1277       C  0.14118565  0.87182288  0.26776025     0.03500
C1278       C  0.12040981  0.85200539  0.25333112    -0.10600
H1279       H  0.10335971  0.90296383  0.19518036     0.09100
H1280       H  0.18063324  0.90054379  0.25751643     0.06600
H1281       H  0.11040324  0.83322114  0.26746298     0.06400
C1282       C  0.36722549  0.59692184  0.25753941     0.03500
C1283       C  0.38315830  0.62119328  0.24033398    -0.12700
C1284       C  0.41140091  0.63400437  0.25207370     0.01000
C1285       C  0.42343141  0.62127937  0.27959526    -0.11200
C1286       C  0.40717612  0.59903596  0.29709828     0.03500
C1287       C  0.37969358  0.58652339  0.28586319    -0.10600
H1288       H  0.37310081  0.63076375  0.21942562     0.09100
H1289       H  0.44557031  0.62948347  0.28855829     0.06600
H1290       H  0.36809206  0.56838244  0.29964780     0.06400
C1291       C  0.10577395  0.65991116  0.23103900     0.03500
C1292       C  0.11898261  0.66437544  0.26065827    -0.12700
C1293       C  0.14185639  0.64494648  0.27135222     0.01000
C1294       C  0.16118262  0.63236983  0.24901010    -0.11200
C1295       C  0.14691819  0.62099423  0.22218772     0.03500
C1296       C  0.11886762  0.63595111  0.21228022    -0.10600
H1297       H  0.10725580  0.67794069  0.27803062     0.09100
H1298       H  0.18154612  0.62083352  0.25766959     0.06600
H1299       H  0.10558608  0.62665813  0.19325092     0.06400
C1300       C  0.36938470  0.92362366  0.25594457     0.03500
C1301       C  0.38140299  0.89657650  0.24190541    -0.12700
C1302       C  0.40997799  0.88427412  0.25253139     0.01000
C1303       C  0.42601622  0.89997089  0.27603787    -0.11200
C1304       C  0.41326322  0.92500798  0.29083133     0.03500
C1305       C  0.38575244  0.93717548  0.28042896    -0.10600
H1306       H  0.36809294  0.88458782  0.22440085     0.09100
H1307       H  0.44779944  0.89139766  0.28471326     0.06600
H1308       H  0.37679810  0.95714079  0.29215851     0.06400
N1309       N  0.49455880  0.00943595  0.41435744    -0.36300
N1310       N  0.53857153  0.55559206  0.39204076    -0.56800
N1311       N  0.07832942  0.00236048  0.36720834    -0.36300
N1312       N  0.53269414  0.95804129  0.39226018    -0.56800
C1313       C  0.47567319  0.53359950  0.41517648     0.27300
C1314       C  0.47301225  0.98613038  0.41554014     0.27300
C1315       C  0.09988364  0.52694627  0.36385078     0.27300
C1316       C  0.09305320  0.97572629  0.36183677     0.27300
C1317       C  0.51255759  0.57260139  0.39059644     0.35900
C1318       C  0.06456836  0.57067729  0.37473498     0.35900
C1319       C  0.50609613  0.94241098  0.40008195     0.35900
C1320       C  0.05025721  0.93695025  0.37333505     0.35900
C1321       C  0.44665526  0.52542291  0.42791472    -0.21500
C1322       C  0.44378441  0.99778013  0.42123219    -0.21500
C1323       C  0.12826751  0.51538667  0.35443861    -0.21500
C1324       C  0.12457679  0.98198415  0.35716407    -0.21500
C1325       C  0.51928335  0.60020356  0.37473534    -0.22600
C1326       C  0.05374861  0.59891288  0.36475349    -0.22600
C1327       C  0.50804801  0.91205490  0.39065362    -0.22600
C1328       C  0.03495706  0.90884865  0.36900638    -0.22600
C1329       C  0.48201695  0.56164273  0.39882718    -0.17900
C1330       C  0.47728004  0.95698874  0.40232223    -0.17900
C1331       C  0.07887888  0.94610812  0.35907487    -0.17900
C1332       C  0.09325027  0.55875302  0.36421519    -0.17900
H1333       H  0.42740720  0.54061564  0.43182585     0.15000
H1334       H  0.42169386  0.98519302  0.42107364     0.15000
H1335       H  0.14938929  0.52836909  0.34846461     0.15000
H1336       H  0.14232420  0.96582079  0.35153359     0.15000
H1337       H  0.50405856  0.61834281  0.36805965     0.13300
H1338       H  0.06574731  0.61641822  0.35048263     0.13200
H1339       H  0.48940880  0.89473593  0.39107053     0.13300
H1340       H  0.04248359  0.88979839  0.35502694     0.13200
H1341       H  0.51750387  0.00755203  0.40734243     0.26500
H1342       H  0.05449652  0.00487749  0.36840166     0.26500
C1343       C  0.15563957  0.93593459  0.21649864     0.42800
N1344       N  0.17970028  0.97688014  0.23310235     0.01700
C1345       C  0.28785778  0.56410799  0.14827360    -0.06200
H1346       H  0.31076573  0.94282085  0.16067048     0.07200
C1347       C  0.31919587  0.95135341  0.27285398    -0.06500
Co1348     Co  0.21299200  0.51266248  0.18411666     0.74200
N1349       N  0.27581461  0.97654480  0.17111335    -0.25700
Co1350     Co  0.29231755  0.51016583  0.19980532     0.74100
C1351       C  0.33887865  0.93762767  0.24861270     0.42900
N1352       N  0.24647065  0.97474736  0.29981614     0.01300
N1353       N  0.31316357  0.97585548  0.22939537     0.01400
N1354       N  0.23610270  0.56793852  0.14668646    -0.46600
H1355       H  0.17537452  0.94421161  0.16667120     0.07200
N1356       N  0.24595298  0.97791219  0.16463293     0.01700
N1357       N  0.31074899  0.54404611  0.22931844     0.01400
C1358       C  0.33684851  0.58232158  0.24887004     0.43100
N1359       N  0.21660484  0.97549776  0.29293629    -0.25200
C1360       C  0.17192145  0.57314262  0.19125234    -0.06100
N1361       N  0.16129372  0.95340611  0.24175738    -0.46300
N1362       N  0.33237132  0.56586084  0.22258765    -0.46500
C1363       C  0.15437629  0.58750467  0.21693822     0.42800
N1364       N  0.24398564  0.54662414  0.16706587     0.01700
N1365       N  0.21429564  0.54373748  0.29385676    -0.25200
N1366       N  0.18694404  0.97656169  0.20312296    -0.25700
N1367       N  0.24427385  0.54347710  0.30020364     0.01300
H1368       H  0.17585880  0.56706414  0.31507115     0.07200
H1369       H  0.31362740  0.57324521  0.29703392     0.07300
N1370       N  0.27435992  0.54421186  0.16942810    -0.25700
N1371       N  0.30482398  0.97494201  0.25919067    -0.25300
N1372       N  0.17715453  0.54579939  0.23351777     0.01700
C1373       C  0.26101347  0.93596081  0.14200508     0.43100
C1374       C  0.20132241  0.95369484  0.31013654    -0.06600
N1375       N  0.30168198  0.54417444  0.25890333    -0.25300
H1376       H  0.31825948  0.94598632  0.29757225     0.07200
N1377       N  0.23644818  0.95429935  0.14768956    -0.46600
H1378       H  0.17641449  0.94947387  0.30985742     0.07200
C1379       C  0.22552414  0.57636783  0.33295419     0.42900
C1380       C  0.17310534  0.95129687  0.19063213    -0.06100
Co1381     Co  0.19427979  0.51104078  0.26328298     0.73800
N1382       N  0.25250992  0.95332259  0.32154984    -0.46300
C1383       C  0.26213626  0.58019584  0.13280287     0.43200
N1384       N  0.15939596  0.56876896  0.24203552    -0.46300
Co1385     Co  0.27706674  0.00884830  0.27990107     0.73900
C1386       C  0.31574089  0.56806259  0.27252407    -0.06600
C1387       C  0.28727521  0.95081202  0.15815580    -0.06200
N1388       N  0.18468971  0.54733715  0.20360139    -0.25700
N1389       N  0.33399815  0.95467229  0.22240965    -0.46400
H1390       H  0.31252710  0.56597209  0.14304888     0.07200
C1391       C  0.20063572  0.56368492  0.31321593    -0.06600
Cl1392     Cl  0.24293717  0.51088224  0.23187947    -0.49600
C1393       C  0.22493419  0.93896860  0.32948719     0.43000
H1394       H  0.17470838  0.58113009  0.16733191     0.07200
N1395       N  0.25168210  0.56187805  0.32372384    -0.46300
C1396       C  0.42731143  0.93630159  0.31946143    -0.05100
C1397       C  0.41442581  0.92682389  0.34849159    -0.32500
C1398       C  0.42980478  0.93394357  0.37610943     0.36700
C1399       C  0.45778491  0.95137013  0.37460972    -0.05500
C1400       C  0.46968692  0.96201133  0.34546183    -0.32400
C1401       C  0.45492103  0.95417307  0.31799990     0.36600
H1402       H  0.39318625  0.91276212  0.34957014     0.17000
O1403       O  0.41787829  0.92319737  0.40417486    -0.59900
H1404       H  0.49141989  0.97528677  0.34402706     0.17000
O1405       O  0.46851922  0.96260472  0.28986221    -0.60000
H1406       H  0.45544726  0.97914722  0.28130154     0.44000
H1407       H  0.42664443  0.90242280  0.40706577     0.43900
C1408       C  0.11112042  0.57849153  0.34134224    -0.05100
C1409       C  0.10210631  0.57555108  0.31051972    -0.32500
C1410       C  0.11037385  0.59799739  0.28850148     0.36700
C1411       C  0.13119316  0.62260908  0.29603196    -0.05500
C1412       C  0.14147804  0.62500527  0.32670718    -0.32400
C1413       C  0.13042255  0.60372106  0.34962327     0.36600
H1414       H  0.08595606  0.55715089  0.30410674     0.17000
O1415       O  0.09689903  0.59594315  0.25989559    -0.59900
H1416       H  0.15684705  0.64398789  0.33312448     0.17000
O1417       O  0.13717101  0.60865578  0.38006876    -0.60000
H1418       H  0.12249386  0.62464768  0.38672052     0.44000
H1419       H  0.07620601  0.60534699  0.26238104     0.43900
C1420       C  0.45677955  0.57104919  0.37748731    -0.05100
C1421       C  0.44641167  0.54918653  0.35580639    -0.32500
C1422       C  0.42796131  0.55757099  0.33090999     0.36700
C1423       C  0.42004346  0.58847708  0.32689426    -0.05500
C1424       C  0.42810635  0.61006338  0.34975673    -0.32400
C1425       C  0.44639707  0.60143715  0.37519579     0.36600
H1426       H  0.45431058  0.52575424  0.35706484     0.17000
O1427       O  0.42057353  0.53609582  0.30888572    -0.59900
H1428       H  0.42148343  0.63390184  0.34699897     0.17000
O1429       O  0.45538138  0.62266925  0.39698441    -0.60000
H1430       H  0.46012014  0.64248141  0.38576325     0.44000
H1431       H  0.40275513  0.52381484  0.31798774     0.43900
C1432       C  0.12566235  0.89024016  0.29237342    -0.05100
C1433       C  0.11008567  0.91726756  0.28357989    -0.32500
C1434       C  0.09448289  0.93475372  0.30510148     0.36700
C1435       C  0.09346927  0.92547288  0.33637293    -0.05500
C1436       C  0.10631267  0.89732277  0.34523902    -0.32400
C1437       C  0.12212843  0.87942452  0.32323869     0.36600
H1438       H  0.10883695  0.92501725  0.25977504     0.17000
O1439       O  0.07917617  0.96046514  0.29516963    -0.59900
H1440       H  0.10359388  0.88958638  0.36904301     0.17000
O1441       O  0.13374006  0.85146454  0.33177285    -0.60000
H1442       H  0.11656074  0.83628268  0.32812865     0.44000
H1443       H  0.09546132  0.97705224  0.29307992     0.43900
C1444       C  0.11977129  0.89055724  0.46024217    -0.05100
C1445       C  0.11225144  0.86732976  0.43907024    -0.32500
C1446       C  0.13201990  0.86217868  0.41309932     0.36700
C1447       C  0.15748159  0.88269448  0.40641771    -0.05500
C1448       C  0.16604916  0.90408259  0.42922872    -0.32400
C1449       C  0.14871362  0.90642883  0.45680968     0.36600
H1450       H  0.09051920  0.85426078  0.44185511     0.17000
O1451       O  0.12593991  0.83788009  0.39390097    -0.59900
H1452       H  0.18696274  0.91840183  0.42603206     0.17000
O1453       O  0.15811868  0.92736798  0.47858811    -0.60000
H1454       H  0.16532769  0.91479937  0.49646856     0.44000
H1455       H  0.10346478  0.83841689  0.38895702     0.43900
C1456       C  0.17054715  0.56816998  0.43645666    -0.05100
C1457       C  0.17474066  0.53718531  0.44474906    -0.32500
C1458       C  0.15085096  0.51985539  0.45989372     0.36700
C1459       C  0.12105093  0.53252299  0.46420794    -0.05500
C1460       C  0.11772666  0.56411125  0.45829567    -0.32400
C1461       C  0.14266036  0.58222395  0.44591958     0.36600
H1462       H  0.19658094  0.52635099  0.43931339     0.17000
O1463       O  0.15655930  0.49024542  0.46952863    -0.59900
H1464       H  0.09554326  0.57454450  0.46263626     0.17000
O1465       O  0.13890061  0.61330261  0.44184303    -0.60000
H1466       H  0.14771593  0.62281224  0.46070968     0.44000
H1467       H  0.16691061  0.49235857  0.48990542     0.43900
C1468       C  0.18572574  0.56128020  0.06820424    -0.05100
C1469       C  0.18257271  0.52924211  0.06446632    -0.32500
C1470       C  0.15458923  0.51357271  0.07248493     0.36700
C1471       C  0.12908706  0.52999892  0.08433084    -0.06400
C1472       C  0.13232004  0.56178099  0.08797703    -0.32400
C1473       C  0.16047025  0.57732070  0.08101728     0.36600
H1474       H  0.20188638  0.51636946  0.05532567     0.17000
O1475       O  0.15171553  0.48261563  0.06672976    -0.59900
H1476       H  0.11231567  0.57458472  0.09487961     0.17000
O1477       O  0.16329371  0.60806687  0.08765903    -0.60000
H1478       H  0.17201505  0.60859225  0.10891165     0.44000
H1479       H  0.14237681  0.48121861  0.04578648     0.43900
C1480       C  0.18210967  0.87479311  0.12628911    -0.05100
C1481       C  0.15379443  0.86253673  0.13862686    -0.32500
C1482       C  0.12529903  0.87206065  0.12626713     0.36700
C1483       C  0.12540386  0.89306497  0.10087013    -0.05500
C1484       C  0.15359106  0.90461822  0.08852292    -0.32400
C1485       C  0.18153949  0.89621254  0.10105686     0.36600
H1486       H  0.15381317  0.84601960  0.15784672     0.17000
O1487       O  0.09781668  0.86053263  0.13877841    -0.59900
H1488       H  0.15386797  0.92118382  0.06929729     0.17000
O1489       O  0.20824483  0.91003325  0.08894592    -0.60000
H1490       H  0.21059660  0.90205649  0.06752365     0.44000
H1491       H  0.08755117  0.87827082  0.14850005     0.43900
C1492       C  0.42616433  0.63275755  0.46970300    -0.05100
C1493       C  0.43754876  0.66027497  0.48293952    -0.32500
C1494       C  0.43514828  0.68854156  0.46697273     0.36700
C1495       C  0.42079609  0.68938219  0.43774593    -0.05500
C1496       C  0.40653609  0.66241752  0.42634236    -0.32400
C1497       C  0.40884421  0.63424245  0.44236721     0.36600
H1498       H  0.45007346  0.65941715  0.50465751     0.17000
O1499       O  0.44715422  0.71496775  0.47985711    -0.59900
H1500       H  0.39402442  0.66317566  0.40461093     0.17000
O1501       O  0.39607988  0.60796363  0.42993149    -0.60000
H1502       H  0.37653474  0.60377999  0.44205537     0.44000
H1503       H  0.46687590  0.71966589  0.46817966     0.43900
C1504       C  0.05852164  0.64850450  0.46048762    -0.05100
C1505       C  0.06470802  0.64815613  0.42843676    -0.32500
C1506       C  0.06768144  0.67568970  0.41106163     0.36700
C1507       C  0.06420917  0.70428800  0.42586396    -0.05500
C1508       C  0.05732291  0.70457053  0.45788554    -0.32400
C1509       C  0.05459425  0.67702471  0.47519626     0.36600
H1510       H  0.06796568  0.62637023  0.41719004     0.17000
O1511       O  0.07534959  0.67443161  0.37995094    -0.59900
H1512       H  0.05514023  0.72632717  0.46971387     0.17000
O1513       O  0.04763416  0.67818347  0.50640019    -0.60000
H1514       H  0.06710957  0.68576448  0.51617890     0.44000
H1515       H  0.09839831  0.67650884  0.37888085     0.43900
C1516       C  0.41432355  0.62080131  0.10764891    -0.05100
C1517       C  0.42346667  0.65002652  0.09614180    -0.32500
C1518       C  0.40476450  0.67506638  0.10016689     0.36700
C1519       C  0.37656429  0.67179297  0.11724976    -0.05500
C1520       C  0.36788691  0.64295248  0.13071954    -0.32400
C1521       C  0.38658798  0.61715324  0.12559493     0.36600
H1522       H  0.44429732  0.65297653  0.08162594     0.17000
O1523       O  0.41340721  0.70257334  0.08576716    -0.59900
H1524       H  0.34654709  0.64036719  0.14441875     0.17000
O1525       O  0.37752509  0.58874936  0.13760044    -0.60000
H1526       H  0.36433857  0.57916818  0.12147497     0.44000
H1527       H  0.43240504  0.70992155  0.09652285     0.43900
C1528       C  0.10449392  0.68532718  0.12593632    -0.05100
C1529       C  0.07731197  0.69026769  0.10894703    -0.32500
C1530       C  0.05847958  0.66584605  0.09946669     0.36700
C1531       C  0.06689955  0.63535090  0.10587432    -0.05500
C1532       C  0.09348486  0.63004074  0.12385487    -0.32400
C1533       C  0.11287410  0.65491818  0.13297984     0.36600
H1534       H  0.07134660  0.71324791  0.10142568     0.17000
O1535       O  0.03269070  0.67189162  0.08209542    -0.59900
H1536       H  0.09974982  0.60685404  0.13006492     0.17000
O1537       O  0.14015341  0.64926364  0.14798590    -0.60000
H1538       H  0.15707230  0.65543039  0.13299316     0.44000
H1539       H  0.04073356  0.67536806  0.06052325     0.43900
C1540       C  0.24282734  0.65851192  0.54737242     0.42800
N1541       N  0.23014864  0.69432146  0.51466760     0.01700
C1542       C  0.33085511  0.79103559  0.92574884    -0.06200
H1543       H  0.33358199  0.80219712  0.55314934     0.07200
C1544       C  0.22430788  0.83741749  0.55024392    -0.06500
Co1545     Co  0.28502835  0.72217302  0.97768534     0.74200
N1546       N  0.31251621  0.77348598  0.51775779    -0.25700
Co1547     Co  0.28875319  0.80204474  0.48617469     0.74100
C1548       C  0.25233231  0.84819312  0.56611925     0.42900
N1549       N  0.18305183  0.77378809  0.52312697     0.01300
N1550       N  0.26504906  0.82344244  0.52432989     0.01400
N1551       N  0.32172078  0.74045638  0.91966161    -0.46600
H1552       H  0.29496656  0.66585721  0.53546391     0.07200
N1553       N  0.31107352  0.74323327  0.51426948     0.01700
N1554       N  0.26008605  0.82903029  0.95271967     0.01400
C1555       C  0.24010027  0.85789015  0.91646435     0.43100
N1556       N  0.18215764  0.74367585  0.51929556    -0.25200
C1557       C  0.26429143  0.67547126  0.92410587    -0.06100
N1558       N  0.21844441  0.67284330  0.53423005    -0.46300
N1559       N  0.26719536  0.84520968  0.92645843    -0.46500
C1560       C  0.23381490  0.66332055  0.91315441     0.42800
N1561       N  0.30517607  0.75083461  0.94314203     0.01700
N1562       N  0.18193671  0.74893935  0.95225691    -0.25200
N1563       N  0.26087735  0.69422405  0.51314219    -0.25700
N1564       N  0.17967673  0.77899768  0.95528923     0.01300
H1565       H  0.16115363  0.71614176  0.92138507     0.07200
H1566       H  0.19142618  0.84914275  0.93896987     0.07300
N1567       N  0.30939757  0.78076455  0.94698617    -0.25700
N1568       N  0.23424633  0.82224041  0.52539108    -0.25300
N1569       N  0.22727141  0.69985124  0.94648068     0.01700
C1570       C  0.33787231  0.74920253  0.55627090     0.43100
C1571       C  0.16343743  0.73086451  0.54123990    -0.06600
N1572       N  0.22994608  0.82880412  0.95874146    -0.25300
H1573       H  0.20011781  0.84062868  0.55652356     0.07200
N1574       N  0.32560494  0.72829380  0.53658483    -0.46600
H1575       H  0.15782494  0.70645493  0.54361151     0.07200
C1576       C  0.14949004  0.76727083  0.91633252     0.42900
C1577       C  0.27103200  0.67262559  0.53315106    -0.06100
Co1578     Co  0.20591311  0.72150621  0.98342947     0.73800
N1579       N  0.16620181  0.78253730  0.54758369    -0.46300
C1580       C  0.33989637  0.76387291  0.90784060     0.43200
N1581       N  0.21255354  0.67980499  0.92868924    -0.46300
Co1582     Co  0.20753217  0.80175023  0.49101569     0.73900
C1583       C  0.21626349  0.84730621  0.93913104    -0.06600
C1584       C  0.32915646  0.77957102  0.54368244    -0.06200
N1585       N  0.25775128  0.69808735  0.94455210    -0.25700
N1586       N  0.27693581  0.83834633  0.54876905    -0.46400
H1587       H  0.34089028  0.81417542  0.92458694     0.07200
C1588       C  0.16497360  0.73987096  0.92808395    -0.06600
Cl1589     Cl  0.24682224  0.76168832  0.48495785    -0.49600
C1590       C  0.15297229  0.75649026  0.56019523     0.43000
H1591       H  0.28713621  0.66623285  0.92008639     0.07200
N1592       N  0.15940940  0.79061165  0.93515841    -0.46300
C1593       C  0.13905808  0.75294790  0.59191611     0.03500
C1594       C  0.14589958  0.72562933  0.60827362    -0.12700
C1595       C  0.12708090  0.71571577  0.63320393     0.01000
C1596       C  0.11136349  0.73831854  0.64940645    -0.11200
C1597       C  0.09969338  0.76336983  0.63220502     0.03500
C1598       C  0.11469810  0.77155655  0.60337826    -0.10600
H1599       H  0.16113369  0.70894525  0.59796745     0.09100
H1600       H  0.09910615  0.73080789  0.67059290     0.06600
H1601       H  0.10547092  0.78961469  0.58872336     0.06400
C1602       C  0.35163624  0.73965628  0.58679750     0.03500
C1603       C  0.37100510  0.75886870  0.60565362    -0.12700
C1604       C  0.38341174  0.74646778  0.63375004     0.01000
C1605       C  0.37338888  0.71664546  0.64349957    -0.11200
C1606       C  0.36231297  0.69611184  0.62158486     0.03500
C1607       C  0.34854807  0.70800509  0.59493150    -0.10600
H1608       H  0.37823252  0.78171380  0.59739801     0.09100
H1609       H  0.38292815  0.70662278  0.66453535     0.06600
H1610       H  0.33890070  0.69165320  0.57861655     0.06400
C1611       C  0.08005766  0.75813636  0.86072538     0.03500
C1612       C  0.10869331  0.77016098  0.87259649    -0.12700
C1613       C  0.11717697  0.76353696  0.90401953     0.01000
C1614       C  0.09706702  0.74462476  0.92241714    -0.11200
C1615       C  0.07117963  0.72986645  0.90970292     0.03500
C1616       C  0.06188509  0.73775181  0.87971603    -0.10600
H1617       H  0.12473492  0.78298311  0.85723453     0.09100
H1618       H  0.10413266  0.73763493  0.94561508     0.06600
H1619       H  0.04146431  0.72613490  0.87042344     0.06400
C1620       C  0.41488081  0.74483756  0.86510614     0.03500
C1621       C  0.38834362  0.76199342  0.87292651    -0.12700
C1622       C  0.37260234  0.75593795  0.90159571     0.01000
C1623       C  0.38484811  0.73467468  0.92284441    -0.11200
C1624       C  0.40836264  0.71528930  0.91391551     0.03500
C1625       C  0.42363858  0.72050749  0.88521943    -0.10600
H1626       H  0.37906008  0.77823756  0.85625165     0.09100
H1627       H  0.37298465  0.72999325  0.94502202     0.06600
H1628       H  0.44230314  0.70544541  0.87870194     0.06400
N1629       N  0.48470697  0.61366379  0.96672161    -0.36300
N1630       N  0.05186586  0.60270790  0.53177312    -0.56800
N1631       N  0.49248431  0.59252250  0.58051673    -0.36300
N1632       N  0.44153338  0.58557073  0.53536084    -0.56800
C1633       C  0.01754162  0.60015006  0.97174826     0.27300
C1634       C  0.46138315  0.59412234  0.97614278     0.27300
C1635       C  0.02702704  0.60227064  0.59756447     0.27300
C1636       C  0.46695340  0.58959897  0.59972908     0.27300
C1637       C  0.05993143  0.61242120  0.00591781     0.35900
C1638       C  0.06948332  0.60980601  0.55641848     0.35900
C1639       C  0.41888682  0.59485476  0.01268068     0.35900
C1640       C  0.42331404  0.58642905  0.56097006     0.35900
C1641       C  0.01167259  0.57023323  0.98170210    -0.21500
C1642       C  0.47318321  0.56613719  0.98577023    -0.21500
C1643       C  0.01733447  0.60332073  0.62849966    -0.21500
C1644       C  0.47630163  0.59141359  0.63041833    -0.21500
C1645       C  0.08851314  0.62507415  0.01364430    -0.22600
C1646       C  0.09758399  0.62340667  0.54591689    -0.22600
C1647       C  0.38855645  0.59829860  0.02246069    -0.22600
C1648       C  0.39270681  0.59176771  0.55217704    -0.22600
C1649       C  0.04512607  0.61675310  0.97719147    -0.17900
C1650       C  0.43132009  0.60383668  0.98343003    -0.17900
C1651       C  0.43513394  0.59220887  0.59105223    -0.17900
C1652       C  0.05788947  0.61129557  0.58757570    -0.17900
H1653       H  0.02850518  0.55461431  0.99004375     0.15000
H1654       H  0.46035040  0.54662345  0.99612330     0.15000
H1655       H  0.03176356  0.60776320  0.64849165     0.15000
H1656       H  0.46132717  0.59144891  0.65095870     0.15000
H1657       H  0.10507914  0.63714914  0.99830500     0.13300
H1658       H  0.11578006  0.63361677  0.55981529     0.13200
H1659       H  0.36908713  0.60527221  0.00850474     0.13300
H1660       H  0.37273154  0.59533154  0.56719202     0.13200
H1661       H  0.48277847  0.63704735  0.96113781     0.26500
H1662       H  0.49218481  0.59471143  0.55639814     0.26500
C1663       C  0.07458143  0.67424334  0.72510441     0.42800
N1664       N  0.03453774  0.70058419  0.73944373     0.01700
C1665       C  0.42786995  0.78607060  0.65755588    -0.06200
H1666       H  0.05760464  0.81938624  0.64966593     0.07200
C1667       C  0.05194816  0.84348333  0.75749713    -0.06500
Co1668     Co  0.49342279  0.72407373  0.69081241     0.74200
N1669       N  0.02429429  0.78426969  0.66589537    -0.25700
Co1670     Co  0.49006760  0.80533977  0.69460722     0.74100
C1671       C  0.06772945  0.85566984  0.72904919     0.42900
N1672       N  0.03376596  0.77559820  0.79555697     0.01300
N1673       N  0.02581145  0.82995683  0.71731063     0.01400
N1674       N  0.43340092  0.73461528  0.65769582    -0.46600
H1675       H  0.06158717  0.68036417  0.67317316     0.07200
N1676       N  0.02402271  0.75393604  0.66348073     0.01700
N1677       N  0.45675730  0.82616606  0.72440922     0.01400
C1678       C  0.42025736  0.85384455  0.74491400     0.43100
N1679       N  0.03600509  0.74565715  0.79164316    -0.25200
C1680       C  0.43985782  0.67421145  0.71316189    -0.06100
N1681       N  0.05856360  0.68525490  0.74967686    -0.46300
N1682       N  0.43503393  0.84672113  0.71763837    -0.46500
C1683       C  0.43003326  0.66206780  0.74445801     0.42800
N1684       N  0.45662561  0.74821613  0.67210799     0.01700
N1685       N  0.46848154  0.73996866  0.79933513    -0.25200
N1686       N  0.03248976  0.70084083  0.70882979    -0.25700
N1687       N  0.46521176  0.76993642  0.80190100     0.01300
H1688       H  0.44696096  0.70053566  0.82284600     0.07200
H1689       H  0.43298321  0.83721075  0.79410078     0.07300
N1690       N  0.45447062  0.77861403  0.67253436    -0.25700
N1691       N  0.02703771  0.82739940  0.74800691    -0.25300
N1692       N  0.46715797  0.69617422  0.74885605     0.01700
C1693       C  0.06594533  0.76851939  0.63812990     0.43100
C1694       C  0.05851214  0.73517622  0.81000174    -0.06600
N1695       N  0.45847047  0.82097158  0.75473016    -0.25300
H1696       H  0.05942319  0.84470316  0.78142564     0.07200
N1697       N  0.04778983  0.74406848  0.64717987    -0.46600
H1698       H  0.06306083  0.71102432  0.81413340     0.07200
C1699       C  0.43221206  0.74946872  0.83511166     0.42900
C1700       C  0.05686749  0.68454065  0.69747225    -0.06100
Co1701     Co  0.50193987  0.72101021  0.77047958     0.73800
N1702       N  0.05288661  0.78587797  0.81750952    -0.46300
C1703       C  0.41379274  0.75632898  0.64774197     0.43200
N1704       N  0.44820734  0.67729694  0.76453602    -0.46300
Co1705     Co  0.49581490  0.79943890  0.77600968     0.73900
C1706       C  0.43567726  0.83574677  0.76905206    -0.06600
C1707       C  0.05014834  0.79552602  0.65066789    -0.06200
N1708       N  0.46302666  0.69548897  0.71856428    -0.25700
N1709       N  0.05006079  0.84604591  0.70499677    -0.46400
H1710       H  0.41937158  0.80914259  0.65425628     0.07200
C1711       C  0.44863669  0.72525929  0.81908690    -0.06600
Cl1712     Cl  0.49544775  0.76255298  0.73297696    -0.49600
C1713       C  0.07008014  0.76180976  0.82760636     0.43000
H1714       H  0.43176829  0.66739321  0.69047168     0.07200
N1715       N  0.44405536  0.77678385  0.82358670    -0.46300
C1716       C  0.25157374  0.86032986  0.59886203     0.03500
C1717       C  0.22703032  0.84781911  0.61768969    -0.12700
C1718       C  0.21153198  0.86673835  0.63839354     0.01000
C1719       C  0.22858130  0.89068559  0.65166769    -0.11200
C1720       C  0.25383187  0.90449963  0.63496002     0.03500
C1721       C  0.26542741  0.88922398  0.60786119    -0.10600
H1722       H  0.21426138  0.82751576  0.60994377     0.09100
H1723       H  0.21709169  0.90363260  0.66975394     0.06600
H1724       H  0.28195762  0.90117507  0.59231622     0.06400
C1725       C  0.24040404  0.62762803  0.56291825     0.03500
C1726       C  0.26091323  0.61859608  0.58683541    -0.12700
C1727       C  0.25846288  0.58838380  0.59974822     0.01000
C1728       C  0.23831224  0.56690364  0.58563978    -0.11200
C1729       C  0.21363001  0.57745213  0.56804074     0.03500
C1730       C  0.21566248  0.60739195  0.55516751    -0.10600
H1731       H  0.27665292  0.63550026  0.59687590     0.09100
H1732       H  0.23632576  0.54372430  0.59558837     0.06600
H1733       H  0.19729150  0.61520497  0.54014880     0.06400
C1734       C  0.22524725  0.63109582  0.90365279     0.03500
C1735       C  0.20457272  0.61409390  0.92369947    -0.12700
C1736       C  0.19168082  0.58550201  0.91525802     0.01000
C1737       C  0.20064531  0.57307257  0.88650186    -0.11200
C1738       C  0.22044930  0.58948020  0.86528961     0.03500
C1739       C  0.23319588  0.61859970  0.87422073    -0.10600
H1740       H  0.19810250  0.62345551  0.94606569     0.09100
H1741       H  0.19144785  0.55069082  0.88016197     0.06600
H1742       H  0.24788247  0.63193957  0.85796516     0.06400
C1743       C  0.21677427  0.91057829  0.84968524     0.03500
C1744       C  0.23965004  0.89433471  0.86724543    -0.12700
C1745       C  0.23031574  0.86644964  0.88377809     0.01000
C1746       C  0.20048628  0.85436281  0.87693856    -0.11200
C1747       C  0.17739415  0.87599333  0.87415779     0.03500
C1748       C  0.18529349  0.90261403  0.85655784    -0.10600
H1749       H  0.26303970  0.90388510  0.86933998     0.09100
H1750       H  0.19334452  0.83208483  0.88691966     0.06600
H1751       H  0.16726848  0.91878700  0.85170537     0.06400
N1752       N  0.09582144  0.52778619  0.52773549    -0.36300
N1753       N  0.08275818  0.96126135  0.58454570    -0.56800
N1754       N  0.08593206  0.91486187  0.53529941    -0.36300
N1755       N  0.08171644  0.95906136  0.97850796    -0.56800
C1756       C  0.08039501  0.51721643  0.55353723     0.27300
C1757       C  0.07723832  0.52191692  0.00638826     0.27300
C1758       C  0.08757485  0.89676690  0.56137096     0.27300
C1759       C  0.09162350  0.89608739  0.00614807     0.27300
C1760       C  0.09021320  0.48316607  0.59713396     0.35900
C1761       C  0.08975235  0.93731885  0.60312608     0.35900
C1762       C  0.08326162  0.48662793  0.96515103     0.35900
C1763       C  0.09037655  0.93470129  0.96181124     0.35900
C1764       C  0.05160212  0.50460778  0.54581636    -0.21500
C1765       C  0.04930078  0.50948852  0.01840568    -0.21500
C1766       C  0.09102313  0.86631419  0.55262719    -0.21500
C1767       C  0.09305848  0.86578141  0.01656070    -0.21500
C1768       C  0.10221414  0.47547713  0.62577058    -0.22600
C1769       C  0.10222483  0.94843170  0.63075578    -0.22600
C1770       C  0.09108654  0.47804812  0.93573327    -0.22600
C1771       C  0.09988280  0.94458762  0.93210214    -0.22600
C1772       C  0.09584653  0.51156196  0.58150188    -0.17900
C1773       C  0.08934192  0.51616943  0.97677485    -0.17900
C1774       C  0.09732064  0.90540332  0.97471662    -0.17900
C1775       C  0.09435506  0.90707125  0.59199182    -0.17900
H1776       H  0.03474845  0.49305700  0.56131444     0.15000
H1777       H  0.03079324  0.49834641  0.00553008     0.15000
H1778       H  0.09461118  0.84668322  0.56796292     0.15000
H1779       H  0.09603419  0.84554583  0.00248213     0.15000
H1780       H  0.11296657  0.49094983  0.64223322     0.13300
H1781       H  0.11222726  0.93505411  0.64939125     0.13200
H1782       H  0.10076781  0.49334717  0.91819567     0.13300
H1783       H  0.11014750  0.93104090  0.91389035     0.13200
H1784       H  0.11895160  0.53580083  0.52619054     0.26500
H1785       H  0.08602106  0.93879744  0.53458091     0.26500
C1786       C  0.10163842  0.86482084  0.72763848     0.03500
C1787       C  0.11448731  0.89147475  0.71123278    -0.12700
C1788       C  0.14460512  0.90377077  0.71964594     0.01000
C1789       C  0.15940656  0.88934225  0.74493932    -0.11200
C1790       C  0.14072691  0.87161256  0.76562488     0.03500
C1791       C  0.11950887  0.85201873  0.75152511    -0.10600
H1792       H  0.09983040  0.90477419  0.69613724     0.09100
H1793       H  0.17993078  0.90050377  0.75456598     0.06600
H1794       H  0.11014921  0.83280711  0.76549241     0.06400
C1795       C  0.36590022  0.59931204  0.76179681     0.03500
C1796       C  0.38356539  0.62199742  0.74403818    -0.12700
C1797       C  0.41172627  0.63438559  0.75637727     0.01000
C1798       C  0.42209739  0.62254238  0.78506645    -0.11200
C1799       C  0.40428434  0.60175207  0.80299654     0.03500
C1800       C  0.37655598  0.59024861  0.79137812    -0.10600
H1801       H  0.37501801  0.63057138  0.72201337     0.09100
H1802       H  0.44434243  0.63003430  0.79433119     0.06600
H1803       H  0.36376258  0.57334183  0.80566125     0.06400
C1804       C  0.10574480  0.65931329  0.72990717     0.03500
C1805       C  0.11879795  0.66445640  0.75950322    -0.12700
C1806       C  0.14146469  0.64516329  0.77085139     0.01000
C1807       C  0.16083840  0.63194180  0.74902852    -0.11200
C1808       C  0.14680236  0.62037897  0.72217801     0.03500
C1809       C  0.11903838  0.63521755  0.71160146    -0.10600
H1810       H  0.10698205  0.67839327  0.77650050     0.09100
H1811       H  0.18099461  0.62036736  0.75811825     0.06600
H1812       H  0.10619462  0.62584650  0.69230012     0.06400
C1813       C  0.36580365  0.92311579  0.75632428     0.03500
C1814       C  0.37901289  0.89700324  0.74151548    -0.12700
C1815       C  0.40732109  0.88470303  0.75290052     0.01000
C1816       C  0.42194032  0.89968967  0.77774936    -0.11200
C1817       C  0.40793251  0.92360135  0.79320682     0.03500
C1818       C  0.38075535  0.93574020  0.78218442    -0.10600
H1819       H  0.36679161  0.88568261  0.72283125     0.09100
H1820       H  0.44378908  0.89156998  0.78670238     0.06600
H1821       H  0.37114282  0.95514049  0.79433673     0.06400
N1822       N  0.49384729  0.00745484  0.90485094    -0.36300
N1823       N  0.53820375  0.55600732  0.89133324    -0.56800
N1824       N  0.08052374  0.00152458  0.86769908    -0.36300
N1825       N  0.53410998  0.95589333  0.89081153    -0.56800
C1826       C  0.47829539  0.53156274  0.91427750     0.27300
C1827       C  0.47647350  0.98289718  0.91465640     0.27300
C1828       C  0.09871113  0.52992502  0.86633738     0.27300
C1829       C  0.09493672  0.97507320  0.86090895     0.27300
C1830       C  0.51151370  0.57196898  0.88903708     0.35900
C1831       C  0.06232965  0.57314294  0.87397174     0.35900
C1832       C  0.50654355  0.94024265  0.89353964     0.35900
C1833       C  0.05200653  0.93606879  0.87308743     0.35900
C1834       C  0.45264728  0.52180394  0.93223499    -0.21500
C1835       C  0.45072149  0.99287032  0.93105673    -0.21500
C1836       C  0.12820557  0.51869513  0.86131428    -0.21500
C1837       C  0.12596779  0.98179070  0.85356311    -0.21500
C1838       C  0.51703360  0.59869602  0.87130137    -0.22600
C1839       C  0.05121399  0.60068806  0.86242106    -0.22600
C1840       C  0.50842991  0.91175665  0.87957638    -0.22600
C1841       C  0.03654298  0.90811426  0.86809758    -0.22600
C1842       C  0.48176461  0.56067348  0.89958709    -0.17900
C1843       C  0.47799968  0.95423086  0.90026211    -0.17900
C1844       C  0.08073277  0.94525758  0.85889783    -0.17900
C1845       C  0.09168039  0.56153457  0.86525300    -0.17900
H1846       H  0.43444413  0.53611204  0.94132903     0.15000
H1847       H  0.43088780  0.97884794  0.93911255     0.15000
H1848       H  0.14950509  0.53203125  0.85793844     0.15000
H1849       H  0.14348570  0.96578424  0.84678587     0.15000
H1850       H  0.50108181  0.61564326  0.86322360     0.13300
H1851       H  0.06330241  0.61781059  0.84774765     0.13200
H1852       H  0.48968141  0.89498741  0.87639365     0.13300
H1853       H  0.04410626  0.88911424  0.85408954     0.13200
H1854       H  0.51073057  0.00700417  0.88745629     0.26500
H1855       H  0.05701609  0.00362211  0.87167857     0.26500
C1856       C  0.15363081  0.93726532  0.71570818     0.42800
N1857       N  0.17754032  0.97828731  0.73292427     0.01700
C1858       C  0.28856995  0.56624774  0.64863134    -0.06200
H1859       H  0.30873279  0.94447640  0.66015564     0.07200
C1860       C  0.31554346  0.95073853  0.77237370    -0.06500
Co1861     Co  0.21450834  0.51406874  0.68419280     0.74200
N1862       N  0.27383669  0.97800991  0.67118705    -0.25700
Co1863     Co  0.29355056  0.51229759  0.70013599     0.74100
C1864       C  0.33553330  0.93719135  0.74828960     0.42900
N1865       N  0.24437501  0.97464265  0.79952463     0.01300
N1866       N  0.31104863  0.97635525  0.72942454     0.01400
N1867       N  0.23677608  0.57025835  0.64835611    -0.46600
H1868       H  0.17355936  0.94638197  0.66608238     0.07200
N1869       N  0.24401742  0.97968494  0.66456978     0.01700
N1870       N  0.31138137  0.54575125  0.73082510     0.01400
C1871       C  0.33611334  0.58420235  0.75184382     0.43100
N1872       N  0.21457945  0.97547345  0.79241520    -0.25200
C1873       C  0.17240738  0.57326518  0.69152152    -0.06100
N1874       N  0.15941207  0.95441483  0.74123305    -0.46300
N1875       N  0.33264637  0.56819915  0.72506580    -0.46500
C1876       C  0.15431968  0.58705796  0.71703823     0.42800
N1877       N  0.24507903  0.54894034  0.66845487     0.01700
N1878       N  0.21446114  0.54374691  0.79424121    -0.25200
N1879       N  0.18478041  0.97841289  0.70293371    -0.25700
N1880       N  0.24437611  0.54346609  0.80085499     0.01300
H1881       H  0.17577177  0.56675112  0.81541699     0.07200
H1882       H  0.31136113  0.57398731  0.79905040     0.07300
N1883       N  0.27549893  0.54658965  0.67027335    -0.25700
N1884       N  0.30226674  0.97510067  0.75904525    -0.25300
N1885       N  0.17771428  0.54587041  0.73370283     0.01700
C1886       C  0.25908580  0.93813863  0.64119985     0.43100
C1887       C  0.19940842  0.95256272  0.80812734    -0.06600
N1888       N  0.30172068  0.54510699  0.76023262    -0.25300
H1889       H  0.31384844  0.94476182  0.79693329     0.07200
N1890       N  0.23451987  0.95645959  0.64708793    -0.46600
H1891       H  0.17466781  0.94774350  0.80685182     0.07200
C1892       C  0.22537786  0.57622545  0.83348205     0.42900
C1893       C  0.17105215  0.95321604  0.69009857    -0.06100
Co1894     Co  0.19504260  0.51123092  0.76317424     0.73800
N1895       N  0.25043763  0.95225430  0.82021483    -0.46300
C1896       C  0.26243295  0.58214166  0.63360416     0.43200
N1897       N  0.15932215  0.56835863  0.74215603    -0.46300
Co1898     Co  0.27500730  0.00901358  0.78020025     0.73900
C1899       C  0.31462271  0.56913219  0.77458391    -0.06600
C1900       C  0.28526719  0.95255971  0.65775017    -0.06200
N1901       N  0.18553815  0.54774574  0.70390421    -0.25700
N1902       N  0.33149740  0.95484912  0.72232218    -0.46400
H1903       H  0.31312524  0.56788816  0.64265398     0.07200
C1904       C  0.20059790  0.56352865  0.81361689    -0.06600
Cl1905     Cl  0.24401038  0.51183400  0.73205077    -0.49600
C1906       C  0.22295342  0.93725131  0.82710361     0.43000
H1907       H  0.17528720  0.58140528  0.66766723     0.07200
N1908       N  0.25162141  0.56181713  0.82444989    -0.46300
C1909       C  0.42161250  0.93508832  0.82187731    -0.05100
C1910       C  0.41391735  0.92054445  0.85060107    -0.32500
C1911       C  0.43065422  0.92793880  0.87738818     0.36700
C1912       C  0.45507550  0.95001508  0.87522103    -0.05500
C1913       C  0.46160743  0.96534652  0.84658528    -0.32400
C1914       C  0.44492430  0.95814118  0.82009312     0.36600
H1915       H  0.39593715  0.90253999  0.85187774     0.17000
O1916       O  0.42403836  0.91269873  0.90506128    -0.59900
H1917       H  0.48115375  0.98157683  0.84434541     0.17000
O1918       O  0.45242011  0.97269724  0.79222832    -0.60000
H1919       H  0.47014520  0.96121409  0.78351521     0.44000
H1920       H  0.43301856  0.89198734  0.90282704     0.43900
C1921       C  0.10985991  0.58040440  0.84196170    -0.05100
C1922       C  0.10032574  0.57734174  0.81130358    -0.32500
C1923       C  0.10883822  0.59938188  0.78895660     0.36700
C1924       C  0.13053543  0.62341209  0.79590897    -0.05500
C1925       C  0.14177524  0.62552006  0.82624243    -0.32400
C1926       C  0.13032007  0.60491508  0.84961701     0.36600
H1927       H  0.08348828  0.55937076  0.80536665     0.17000
O1928       O  0.09476362  0.59758541  0.76062425    -0.59900
H1929       H  0.15817873  0.64384934  0.83209244     0.17000
O1930       O  0.13827593  0.60950291  0.87982241    -0.60000
H1931       H  0.12925748  0.62954045  0.88533827     0.44000
H1932       H  0.07440651  0.60757847  0.76347984     0.43900
C1933       C  0.45405520  0.57095782  0.88204242    -0.05100
C1934       C  0.43989429  0.54949099  0.86205168    -0.32500
C1935       C  0.42116574  0.55903800  0.83781403     0.36700
C1936       C  0.41626934  0.59060009  0.83308179    -0.05500
C1937       C  0.42699349  0.61180013  0.85522323    -0.32400
C1938       C  0.44580353  0.60208387  0.87989662     0.36600
H1939       H  0.44568598  0.52537389  0.86322388     0.17000
O1940       O  0.41120225  0.53777459  0.81657571    -0.59900
H1941       H  0.42247687  0.63613220  0.85212980     0.17000
O1942       O  0.45795477  0.62296679  0.90060066    -0.60000
H1943       H  0.46267133  0.64255213  0.88896921     0.44000
H1944       H  0.39257089  0.52740198  0.82637933     0.43900
C1945       C  0.12562763  0.88963907  0.79078804    -0.05100
C1946       C  0.11075237  0.91728763  0.78280448    -0.32500
C1947       C  0.09595293  0.93476030  0.80474089     0.36700
C1948       C  0.09469904  0.92471019  0.83572928    -0.05500
C1949       C  0.10598052  0.89560689  0.84366339    -0.32400
C1950       C  0.12119986  0.87777752  0.82117117     0.36600
H1951       H  0.10915267  0.92566691  0.75932530     0.17000
O1952       O  0.08152272  0.96123038  0.79545829    -0.59900
H1953       H  0.10236407  0.88709551  0.86707182     0.17000
O1954       O  0.13138829  0.84896702  0.82874191    -0.60000
H1955       H  0.11309704  0.83490370  0.82592459     0.44000
H1956       H  0.09859749  0.97655811  0.79081912     0.43900
C1957       C  0.12104586  0.88850575  0.95657372    -0.05100
C1958       C  0.11223763  0.86533871  0.93586072    -0.32500
C1959       C  0.13118898  0.85942428  0.90958207     0.36700
C1960       C  0.15681260  0.87943524  0.90208874    -0.05500
C1961       C  0.16675568  0.90059272  0.92458449    -0.32400
C1962       C  0.15052697  0.90318501  0.95271997     0.36600
H1963       H  0.09011525  0.85305305  0.93916654     0.17000
O1964       O  0.12405694  0.83509003  0.89077116    -0.59900
H1965       H  0.18789691  0.91442758  0.92072990     0.17000
O1966       O  0.16090448  0.92414360  0.97405633    -0.60000
H1967       H  0.17418654  0.91223803  0.98834180     0.44000
H1968       H  0.10144075  0.83594580  0.88654173     0.43900
C1969       C  0.16712933  0.56926746  0.93513913    -0.05100
C1970       C  0.16999962  0.53783212  0.94229756    -0.32500
C1971       C  0.14589443  0.52106881  0.95772674     0.36700
C1972       C  0.11694247  0.53479068  0.96401156    -0.05500
C1973       C  0.11464113  0.56655236  0.95840206    -0.32400
C1974       C  0.13981956  0.58402074  0.94540070     0.36600
H1975       H  0.19121112  0.52622947  0.93608562     0.17000
O1976       O  0.15093448  0.49113811  0.96645122    -0.59900
H1977       H  0.09310854  0.57774659  0.96377379     0.17000
O1978       O  0.13684016  0.61525056  0.94174508    -0.60000
H1979       H  0.14409579  0.62415560  0.96155627     0.44000
H1980       H  0.15521130  0.49185394  0.98907652     0.43900
C1981       C  0.18327138  0.56034384  0.57111489    -0.05100
C1982       C  0.18148736  0.52841795  0.56623706    -0.32500
C1983       C  0.15379169  0.51152779  0.57253996     0.36700
C1984       C  0.12720251  0.52654333  0.58398369    -0.06400
C1985       C  0.12920004  0.55816390  0.58940177    -0.32400
C1986       C  0.15705659  0.57493855  0.58380368     0.36600
H1987       H  0.20155760  0.51661071  0.55720741     0.17000
O1988       O  0.15228868  0.48078489  0.56546623    -0.59900
H1989       H  0.10854689  0.56979323  0.59683085     0.17000
O1990       O  0.15863054  0.60552865  0.59128989    -0.60000
H1991       H  0.16968271  0.60617665  0.61139725     0.44000
H1992       H  0.14592799  0.48006213  0.54336398     0.43900
C1993       C  0.18036888  0.87563496  0.62784111    -0.05100
C1994       C  0.15261565  0.86357319  0.64162898    -0.32500
C1995       C  0.12359617  0.87268833  0.63023354     0.36700
C1996       C  0.12273848  0.89315550  0.60443871    -0.05500
C1997       C  0.15039263  0.90453383  0.59074176    -0.32400
C1998       C  0.17878463  0.89652472  0.60229681     0.36600
H1999       H  0.15349243  0.84752432  0.66119268     0.17000
O2000       O  0.09665071  0.86109962  0.64393395    -0.59900
H2001       H  0.14988639  0.92069878  0.57120717     0.17000
O2002       O  0.20497068  0.91027098  0.58897323    -0.60000
H2003       H  0.20695181  0.90134794  0.56791915     0.44000
H2004       H  0.08474909  0.87915411  0.65071633     0.43900
C2005       C  0.42023277  0.63251425  0.96832835    -0.05100
C2006       C  0.42900567  0.66135032  0.98047953    -0.32500
C2007       C  0.42521087  0.68853622  0.96298007     0.36700
C2008       C  0.41297630  0.68700779  0.93281039    -0.05500
C2009       C  0.40163146  0.65853211  0.92195329    -0.32400
C2010       C  0.40469661  0.63143162  0.93984712     0.36600
H2011       H  0.44018270  0.66255211  0.00291390     0.17000
O2012       O  0.43369536  0.71641684  0.97539098    -0.59900
H2013       H  0.39050368  0.65732623  0.89949993     0.17000
O2014       O  0.39411068  0.60375048  0.92854404    -0.60000
H2015       H  0.37165781  0.60248024  0.93430708     0.44000
H2016       H  0.45531790  0.72068465  0.96774779     0.43900
C2017       C  0.05080701  0.64598033  0.95965600    -0.05100
C2018       C  0.06253552  0.64518026  0.92914964    -0.32500
C2019       C  0.06691659  0.67245686  0.91167150     0.36700
C2020       C  0.05966188  0.70103655  0.92492671    -0.05500
C2021       C  0.04718653  0.70173426  0.95522653    -0.32400
C2022       C  0.04237250  0.67438036  0.97247005     0.36600
H2023       H  0.06895894  0.62340304  0.91926773     0.17000
O2024       O  0.07947970  0.67110096  0.88213085    -0.59900
H2025       H  0.04197100  0.72359507  0.96575667     0.17000
O2026       O  0.02981416  0.67558904  0.00197186    -0.60000
H2027       H  0.00693985  0.67458460  0.99921313     0.44000
H2028       H  0.10171606  0.67738616  0.88416320     0.43900
C2029       C  0.41863270  0.61731439  0.60699317    -0.05100
C2030       C  0.42899974  0.64709205  0.59820200    -0.32500
C2031       C  0.41046304  0.67227503  0.60295123     0.36700
C2032       C  0.38105950  0.66832785  0.61769242    -0.05500
C2033       C  0.37113757  0.63884713  0.62851245    -0.32400
C2034       C  0.38987101  0.61316152  0.62308890     0.36600
H2035       H  0.45062357  0.65054245  0.58502386     0.17000
O2036       O  0.42019089  0.70054878  0.59093209    -0.59900
H2037       H  0.34865593  0.63565208  0.64008271     0.17000
O2038       O  0.37891496  0.58408974  0.63113563    -0.60000
H2039       H  0.38450734  0.58118849  0.65330632     0.44000
H2040       H  0.43942883  0.70622528  0.60221562     0.43900
C2041       C  0.10833669  0.68741871  0.62672936    -0.05100
C2042       C  0.08049517  0.69110708  0.61048889    -0.32500
C2043       C  0.06257836  0.66594023  0.60136127     0.36700
C2044       C  0.07312681  0.63596266  0.60634532    -0.05500
C2045       C  0.10051196  0.63176061  0.62348304    -0.32400
C2046       C  0.11844251  0.65746822  0.63323115     0.36600
H2047       H  0.07306382  0.71374519  0.60346361     0.17000
O2048       O  0.03510440  0.67077787  0.58628889    -0.59900
H2049       H  0.10849222  0.60889552  0.62859655     0.17000
O2050       O  0.14591271  0.65313450  0.64838245    -0.60000
H2051       H  0.16259941  0.65823561  0.63276289     0.44000
H2052       H  0.04117007  0.67851848  0.56519444     0.43900
C2053       C  0.74334563  0.15824835  0.04901379     0.42800
N2054       N  0.73044619  0.19410972  0.01647157     0.01700
C2055       C  0.83379825  0.28882542  0.42829851    -0.06200
H2056       H  0.83329584  0.30207218  0.05505548     0.07200
C2057       C  0.72531868  0.33666235  0.05247620    -0.06500
Co2058     Co  0.78403471  0.22211841  0.47933261     0.74200
N2059       N  0.81282262  0.27320542  0.01945045    -0.25700
Co2060     Co  0.78917158  0.30176667  0.98766669     0.74100
C2061       C  0.75351760  0.34707328  0.06828967     0.42900
N2062       N  0.68366884  0.27353816  0.02598069     0.01300
N2063       N  0.76575912  0.32317815  0.02586246     0.01400
N2064       N  0.82309043  0.23843686  0.42260152    -0.46600
H2065       H  0.79542022  0.16576443  0.03698891     0.07200
N2066       N  0.81121580  0.24292141  0.01621326     0.01700
N2067       N  0.76193141  0.32933699  0.45326516     0.01400
C2068       C  0.74285620  0.36011278  0.41808154     0.43100
N2069       N  0.68315693  0.24337529  0.02239931    -0.25200
C2070       C  0.76326621  0.17535943  0.42639607    -0.06100
N2071       N  0.71889065  0.17256038  0.03600318    -0.46300
N2072       N  0.76945894  0.34598529  0.42740131    -0.46500
C2073       C  0.73301422  0.16281062  0.41547906     0.42800
N2074       N  0.80565385  0.24983444  0.44487205     0.01700
N2075       N  0.68158266  0.25160390  0.45360709    -0.25200
N2076       N  0.76114009  0.19409062  0.01490992    -0.25700
N2077       N  0.68011416  0.28169988  0.45694975     0.01300
H2078       H  0.65942172  0.21971997  0.42274530     0.07200
H2079       H  0.69428648  0.35357257  0.44138400     0.07300
N2080       N  0.81077759  0.27969705  0.44844504    -0.25700
N2081       N  0.73496308  0.32200873  0.02718443    -0.25300
N2082       N  0.72598215  0.20044934  0.44767773     0.01700
C2083       C  0.83727945  0.24911304  0.05874913     0.43100
C2084       C  0.66613265  0.23025716  0.04553454    -0.06600
N2085       N  0.73185344  0.33013652  0.45958972    -0.25300
H2086       H  0.70119537  0.33957990  0.05918294     0.07200
N2087       N  0.82519313  0.22807171  0.03903790    -0.46600
H2088       H  0.66139297  0.20573653  0.04842817     0.07200
C2089       C  0.64919582  0.27128925  0.41826564     0.42900
C2090       C  0.77145613  0.17248573  0.03480721    -0.06100
Co2091     Co  0.70495517  0.22319221  0.48457622     0.73800
N2092       N  0.66774520  0.28207973  0.05116328    -0.46300
C2093       C  0.84243318  0.26104856  0.41111766     0.43200
N2094       N  0.71147223  0.17961978  0.43047677    -0.46300
Co2095     Co  0.70760173  0.30165422  0.99312553     0.73900
C2096       C  0.71889932  0.35003558  0.44085606    -0.06600
C2097       C  0.82904933  0.27940377  0.04561911    -0.06200
N2098       N  0.75650188  0.19849760  0.44610655    -0.25700
N2099       N  0.77791917  0.33754899  0.05049062    -0.46400
H2100       H  0.84512133  0.31141233  0.42770083     0.07200
C2101       C  0.66403672  0.24328647  0.42957118    -0.06600
Cl2102     Cl  0.74684399  0.26156239  0.98675577    -0.49600
C2103       C  0.65588506  0.25580463  0.06467346     0.43000
H2104       H  0.78611167  0.16585865  0.42317855     0.07200
N2105       N  0.65996732  0.29411112  0.43721974    -0.46300
C2106       C  0.64080815  0.25242856  0.09597619     0.03500
C2107       C  0.64644888  0.22491882  0.11259466    -0.12700
C2108       C  0.62669252  0.21558347  0.13704093     0.01000
C2109       C  0.61129171  0.23878148  0.15280844    -0.11200
C2110       C  0.60048868  0.26396474  0.13512810     0.03500
C2111       C  0.61644047  0.27156384  0.10660673    -0.10600
H2112       H  0.66149719  0.20780953  0.10274985     0.09100
H2113       H  0.59839273  0.23170712  0.17376727     0.06600
H2114       H  0.60799715  0.28969221  0.09153122     0.06400
C2115       C  0.85058206  0.24002576  0.08971361     0.03500
C2116       C  0.87027105  0.25941214  0.10806687    -0.12700
C2117       C  0.88271629  0.24750986  0.13637012     0.01000
C2118       C  0.87220090  0.21816466  0.14701389    -0.11200
C2119       C  0.86122526  0.19717783  0.12544960     0.03500
C2120       C  0.84709650  0.20861483  0.09870686    -0.10600
H2121       H  0.87794386  0.28188410  0.09913259     0.09100
H2122       H  0.88194397  0.20857493  0.16816302     0.06600
H2123       H  0.83726546  0.19201692  0.08275057     0.06400
C2124       C  0.58012211  0.26061447  0.36298548     0.03500
C2125       C  0.60829405  0.27383419  0.37473679    -0.12700
C2126       C  0.61662658  0.26854625  0.40648030     0.01000
C2127       C  0.59632469  0.25067494  0.42568045    -0.11200
C2128       C  0.57170884  0.23387174  0.41304905     0.03500
C2129       C  0.56286359  0.23977160  0.38238136    -0.10600
H2130       H  0.62423286  0.28638778  0.35904910     0.09100
H2131       H  0.60312725  0.24511728  0.44934643     0.06600
H2132       H  0.54346233  0.22652999  0.37310050     0.06400
C2133       C  0.91688169  0.24157907  0.36716494     0.03500
C2134       C  0.89093076  0.25915296  0.37607253    -0.12700
C2135       C  0.87473203  0.25186981  0.40427149     0.01000
C2136       C  0.88601050  0.22884343  0.42414675    -0.11200
C2137       C  0.90952901  0.20973922  0.41453364     0.03500
C2138       C  0.92505477  0.21608306  0.38612842    -0.10600
H2139       H  0.88230554  0.27669877  0.36040738     0.09100
H2140       H  0.87391131  0.22327195  0.44601237     0.06600
H2141       H  0.94360962  0.20113734  0.37904401     0.06400
N2142       N  0.98859301  0.11199152  0.46818794    -0.36300
N2143       N  0.54831382  0.10672885  0.03250543    -0.56800
N2144       N  0.99339110  0.09623152  0.08315668    -0.36300
N2145       N  0.94231553  0.08515683  0.03789433    -0.56800
C2146       C  0.51884099  0.10193636  0.47282057     0.27300
C2147       C  0.96619830  0.09133695  0.47755246     0.27300
C2148       C  0.52334618  0.10517589  0.09822546     0.27300
C2149       C  0.96783327  0.09237646  0.10212699     0.27300
C2150       C  0.55950204  0.11482329  0.50846663     0.35900
C2151       C  0.56520980  0.11566168  0.05703391     0.35900
C2152       C  0.92488558  0.09224966  0.51530441     0.35900
C2153       C  0.92429125  0.08885968  0.06333341     0.35900
C2154       C  0.51411598  0.07150733  0.48190927    -0.21500
C2155       C  0.97934484  0.06417359  0.48762132    -0.21500
C2156       C  0.51321772  0.10584839  0.12907664    -0.21500
C2157       C  0.97702299  0.09272686  0.13292407    -0.21500
C2158       C  0.58789859  0.12710619  0.51711649    -0.22600
C2159       C  0.59177945  0.13208584  0.04638176    -0.22600
C2160       C  0.89508946  0.09673958  0.52624844    -0.22600
C2161       C  0.89383571  0.09434956  0.05424129    -0.22600
C2162       C  0.54571373  0.11935098  0.47933263    -0.17900
C2163       C  0.93581907  0.09979889  0.48507306    -0.17900
C2164       C  0.93615244  0.09519912  0.09330021    -0.17900
C2165       C  0.55400576  0.11522614  0.08842158    -0.17900
H2166       H  0.53143398  0.05636623  0.49051430     0.15000
H2167       H  0.96744426  0.04416711  0.49809922     0.15000
H2168       H  0.52714956  0.11102061  0.14924342     0.15000
H2169       H  0.96193923  0.09171011  0.15339700     0.15000
H2170       H  0.60508828  0.13903954  0.50233956     0.13300
H2171       H  0.60914536  0.14384969  0.06017361     0.13200
H2172       H  0.87499864  0.10293463  0.51280026     0.13300
H2173       H  0.87417453  0.10008419  0.06884096     0.13200
H2174       H  0.98551980  0.13513252  0.46220231     0.26500
H2175       H  0.99292814  0.09974429  0.05915505     0.26500
C2176       C  0.57337691  0.17463977  0.22734960     0.42800
N2177       N  0.53415830  0.20242449  0.24120822     0.01700
C2178       C  0.92822943  0.28608107  0.15905834    -0.06200
H2179       H  0.55872578  0.32071869  0.15196604     0.07200
C2180       C  0.55035374  0.34583696  0.25946151    -0.06500
Co2181     Co  0.99430561  0.22332357  0.19055477     0.74200
N2182       N  0.52457739  0.28591047  0.16743847    -0.25700
Co2183     Co  0.99063488  0.30467946  0.19520997     0.74100
C2184       C  0.56644191  0.35778595  0.23115489     0.42900
N2185       N  0.53362978  0.27752368  0.29741883     0.01300
N2186       N  0.52515378  0.33146514  0.21901869     0.01400
N2187       N  0.93368644  0.23462021  0.15789604    -0.46600
H2188       H  0.56028009  0.18002332  0.17537131     0.07200
N2189       N  0.52412835  0.25559472  0.16490929     0.01700
N2190       N  0.95730047  0.32541254  0.22514204     0.01400
C2191       C  0.92124785  0.35363230  0.24586331     0.43100
N2192       N  0.53591019  0.24754892  0.29359702    -0.25200
C2193       C  0.94075116  0.17302323  0.21195660    -0.06100
N2194       N  0.55771734  0.18655139  0.25167642    -0.46300
N2195       N  0.93608092  0.34656373  0.21858098    -0.46500
C2196       C  0.92990545  0.16132894  0.24312770     0.42800
N2197       N  0.95741311  0.24787763  0.17190030     0.01700
N2198       N  0.96877801  0.23821206  0.29957728    -0.25200
N2199       N  0.53217660  0.20237971  0.21058814    -0.25700
N2200       N  0.96547257  0.26812545  0.30260133     0.01300
H2201       H  0.94881041  0.19835952  0.32360203     0.07200
H2202       H  0.93338429  0.33591177  0.29486221     0.07300
N2203       N  0.95519438  0.27825013  0.17305160    -0.25700
N2204       N  0.52600250  0.32918333  0.24974166    -0.25300
N2205       N  0.96694422  0.19550219  0.24812209     0.01700
C2206       C  0.56660937  0.26977909  0.14015951     0.43100
C2207       C  0.55832831  0.23715480  0.31219138    -0.06600
N2208       N  0.95874311  0.31973270  0.25539876    -0.25300
H2209       H  0.55735197  0.34745899  0.28351084     0.07200
N2210       N  0.54797458  0.24557221  0.14887194    -0.46600
H2211       H  0.56290394  0.21302840  0.31641897     0.07200
C2212       C  0.93402109  0.24697629  0.33702378     0.42900
C2213       C  0.55597003  0.18507091  0.19954025    -0.06100
Co2214     Co  0.00197229  0.21957288  0.27031356     0.73800
N2215       N  0.55265576  0.28789132  0.31944460    -0.46300
C2216       C  0.91391652  0.25666152  0.14892192     0.43200
N2217       N  0.94740904  0.17697902  0.26349198    -0.46300
Co2218     Co  0.99606090  0.29783410  0.27650709     0.73900
C2219       C  0.93610076  0.33469310  0.26979678    -0.06600
C2220       C  0.55084666  0.29694060  0.15263996    -0.06200
N2221       N  0.96361676  0.19450988  0.21773350    -0.25700
N2222       N  0.54934001  0.34773892  0.20689401    -0.46400
H2223       H  0.91952863  0.30918943  0.15684553     0.07200
C2224       C  0.94989895  0.22311784  0.31996489    -0.06600
Cl2225     Cl  0.99584234  0.26141841  0.23315648    -0.49600
C2226       C  0.56981225  0.26386897  0.32979828     0.43000
H2227       H  0.93334828  0.16590248  0.18912252     0.07200
N2228       N  0.94518402  0.27454656  0.32531135    -0.46300
C2229       C  0.75310403  0.35878983  0.10119682     0.03500
C2230       C  0.72855896  0.34620183  0.11997996    -0.12700
C2231       C  0.71243903  0.36539223  0.13995000     0.01000
C2232       C  0.72912170  0.38954330  0.15329221    -0.11200
C2233       C  0.75468729  0.40323968  0.13695449     0.03500
C2234       C  0.76677845  0.38776411  0.11020127    -0.10600
H2235       H  0.71605397  0.32572822  0.11226144     0.09100
H2236       H  0.71722459  0.40264405  0.17099135     0.06600
H2237       H  0.78339340  0.39970888  0.09474193     0.06400
C2238       C  0.74096138  0.12706992  0.06378405     0.03500
C2239       C  0.76049993  0.11793272  0.08845349    -0.12700
C2240       C  0.75750050  0.08768316  0.10115777     0.01000
C2241       C  0.73763081  0.06637932  0.08647548    -0.11200
C2242       C  0.71371794  0.07709218  0.06789055     0.03500
C2243       C  0.71674727  0.10682867  0.05472862    -0.10600
H2244       H  0.77579423  0.13478456  0.09919959     0.09100
H2245       H  0.73517379  0.04326813  0.09648919     0.06600
H2246       H  0.69921772  0.11468187  0.03874169     0.06400
C2247       C  0.72517129  0.13019647  0.40630542     0.03500
C2248       C  0.70562199  0.11272268  0.42692365    -0.12700
C2249       C  0.69296244  0.08394881  0.41871807     0.01000
C2250       C  0.70104513  0.07166926  0.38957395    -0.11200
C2251       C  0.72063876  0.08808410  0.36809545     0.03500
C2252       C  0.73298660  0.11753650  0.37681046    -0.10600
H2253       H  0.69950018  0.12204265  0.44941771     0.09100
H2254       H  0.69099027  0.04959054  0.38306386     0.06600
H2255       H  0.74718351  0.13105061  0.36028097     0.06400
C2256       C  0.71949832  0.41418677  0.35260530     0.03500
C2257       C  0.74245334  0.39721044  0.36931469    -0.12700
C2258       C  0.73280370  0.36930392  0.38564523     0.01000
C2259       C  0.70251599  0.35807520  0.37928349    -0.11200
C2260       C  0.67991421  0.38032447  0.37732708     0.03500
C2261       C  0.68805808  0.40711767  0.36030935    -0.10600
H2262       H  0.76617614  0.40606328  0.37074733     0.09100
H2263       H  0.69504569  0.33578375  0.38899387     0.06600
H2264       H  0.67029935  0.42387373  0.35627677     0.06400
N2265       N  0.59447953  0.02930163  0.02934556    -0.36300
N2266       N  0.58537436  0.46258456  0.08547643    -0.56800
N2267       N  0.58863818  0.41727235  0.03494701    -0.36300
N2268       N  0.58100601  0.46113123  0.48116921    -0.56800
C2269       C  0.57906645  0.01911753  0.05527380     0.27300
C2270       C  0.57629097  0.01904796  0.50589892     0.27300
C2271       C  0.58979620  0.39865662  0.06068487     0.27300
C2272       C  0.59007493  0.39773230  0.50720130     0.27300
C2273       C  0.58861736  0.98553528  0.09929307     0.35900
C2274       C  0.59333808  0.43829936  0.10315573     0.35900
C2275       C  0.58476761  0.98541861  0.46325934     0.35900
C2276       C  0.58932405  0.43705307  0.46386472     0.35900
C2277       C  0.55006337  0.00683277  0.04778075    -0.21500
C2278       C  0.54833313  0.00563473  0.51671978    -0.21500
C2279       C  0.59183357  0.36820984  0.05143134    -0.21500
C2280       C  0.58960346  0.36711095  0.51681130    -0.21500
C2281       C  0.60138768  0.97767852  0.12754350    -0.22600
C2282       C  0.60634355  0.44880629  0.13076387    -0.22600
C2283       C  0.59609446  0.97795210  0.43450689    -0.22600
C2284       C  0.59799025  0.44729888  0.43406152    -0.22600
C2285       C  0.59468026  0.01358099  0.08316065    -0.17900
C2286       C  0.58986218  0.01437761  0.47667172    -0.17900
C2287       C  0.59670988  0.40771203  0.47621219    -0.17900
C2288       C  0.59712359  0.40816993  0.09142303    -0.17900
H2289       H  0.53311160  0.99563361  0.06342453     0.15000
H2290       H  0.53051618  0.99443992  0.50298365     0.15000
H2291       H  0.59478492  0.34817971  0.06640689     0.15000
H2292       H  0.59176231  0.34710617  0.50224973     0.15000
H2293       H  0.61327908  0.99293217  0.14344972     0.13300
H2294       H  0.61684633  0.43512491  0.14887138     0.13200
H2295       H  0.60795383  0.99355950  0.41840499     0.13300
H2296       H  0.60797381  0.43394410  0.41552956     0.13200
H2297       H  0.61773130  0.03691449  0.02760206     0.26500
H2298       H  0.58992331  0.44123001  0.03462305     0.26500
C2299       C  0.60030709  0.36661443  0.23028163     0.03500
C2300       C  0.61362656  0.39256904  0.21326083    -0.12700
C2301       C  0.64381593  0.40448705  0.22158929     0.01000
C2302       C  0.65830554  0.39047184  0.24728021    -0.11200
C2303       C  0.63927242  0.37381575  0.26842435     0.03500
C2304       C  0.61762509  0.35430941  0.25487406    -0.10600
H2305       H  0.59935730  0.40568586  0.19760391     0.09100
H2306       H  0.67910429  0.40140085  0.25659722     0.06600
H2307       H  0.60790917  0.33564362  0.26934316     0.06400
C2308       C  0.86886254  0.09589413  0.26160765     0.03500
C2309       C  0.88507660  0.11938309  0.24351063    -0.12700
C2310       C  0.91343946  0.13243269  0.25473867     0.01000
C2311       C  0.92542892  0.12054069  0.28267815    -0.11200
C2312       C  0.90898215  0.09923445  0.30119210     0.03500
C2313       C  0.88116035  0.08666413  0.29050535    -0.10600
H2314       H  0.87514965  0.12820348  0.22221080     0.09100
H2315       H  0.94781548  0.12867847  0.29110107     0.06600
H2316       H  0.86938445  0.06916894  0.30496483     0.06400
C2317       C  0.60383987  0.15845620  0.23258579     0.03500
C2318       C  0.61667972  0.16293658  0.26240014    -0.12700
C2319       C  0.63994614  0.14405118  0.27322482     0.01000
C2320       C  0.65921977  0.13129497  0.25101857    -0.11200
C2321       C  0.64490318  0.11963250  0.22437643     0.03500
C2322       C  0.61698206  0.13441317  0.21409172    -0.10600
H2323       H  0.60476386  0.17644756  0.27968331     0.09100
H2324       H  0.67967054  0.11994165  0.25973320     0.06600
H2325       H  0.60424105  0.12539168  0.19454903     0.06400
C2326       C  0.86927997  0.42501172  0.25824522     0.03500
C2327       C  0.88157805  0.39858017  0.24305520    -0.12700
C2328       C  0.90934892  0.38489643  0.25433368     0.01000
C2329       C  0.92444127  0.39887872  0.27949598    -0.11200
C2330       C  0.91131133  0.42294818  0.29546584     0.03500
C2331       C  0.88462353  0.43642528  0.28451267    -0.10600
H2332       H  0.86898946  0.38802753  0.22416475     0.09100
H2333       H  0.94595565  0.38981663  0.28830657     0.06600
H2334       H  0.87561958  0.45584781  0.29708284     0.06400
N2335       N  0.99442229  0.50817732  0.41017844    -0.36300
N2336       N  0.04332758  0.05398218  0.39378358    -0.56800
N2337       N  0.57619471  0.50494304  0.36778784    -0.36300
N2338       N  0.03383990  0.45680038  0.39262875    -0.56800
C2339       C  0.98053624  0.03327025  0.41689119     0.27300
C2340       C  0.97537123  0.48397365  0.41798916     0.27300
C2341       C  0.60065205  0.02650944  0.36641537     0.27300
C2342       C  0.59186211  0.47889553  0.36232182     0.27300
C2343       C  0.01766910  0.07153120  0.39203555     0.35900
C2344       C  0.56822446  0.07094832  0.38157840     0.35900
C2345       C  0.00747857  0.44057050  0.40030620     0.35900
C2346       C  0.55068288  0.43884395  0.37580306     0.35900
C2347       C  0.95203335  0.02572582  0.43111793    -0.21500
C2348       C  0.94740776  0.49473176  0.42942488    -0.21500
C2349       C  0.62895728  0.01441132  0.35768633    -0.21500
C2350       C  0.62298391  0.48637079  0.35613780    -0.21500
C2351       C  0.02487567  0.09863942  0.37552868    -0.22600
C2352       C  0.55971346  0.10125173  0.37709102    -0.22600
C2353       C  0.00982372  0.41045961  0.39031079    -0.22600
C2354       C  0.53672181  0.40981774  0.37326983    -0.22600
C2355       C  0.98698921  0.06145209  0.40085636    -0.17900
C2356       C  0.97849347  0.45444693  0.40524047    -0.17900
C2357       C  0.57876283  0.44868347  0.36066681    -0.17900
C2358       C  0.59534635  0.05845424  0.36831586    -0.17900
H2359       H  0.93374850  0.04150330  0.43681244     0.15000
H2360       H  0.92650050  0.48108470  0.43487562     0.15000
H2361       H  0.65065491  0.02693590  0.35312516     0.15000
H2362       H  0.64131496  0.47073691  0.35039219     0.15000
H2363       H  0.00999715  0.11692666  0.36846569     0.13300
H2364       H  0.57281181  0.11992104  0.36560718     0.13200
H2365       H  0.99178175  0.39258052  0.39107095     0.13300
H2366       H  0.54511285  0.39029419  0.36055055     0.13200
H2367       H  0.01442184  0.50690046  0.39703097     0.26500
H2368       H  0.55233940  0.50643200  0.37000542     0.26500
C2369       C  0.65329788  0.43762682  0.21708915     0.42800
N2370       N  0.67841025  0.47796560  0.23389377     0.01700
C2371       C  0.78692882  0.06528814  0.15021052    -0.06200
H2372       H  0.80952867  0.44388016  0.16158283     0.07200
C2373       C  0.81937980  0.45431960  0.27435946    -0.06500
Co2374     Co  0.71264936  0.01358480  0.18608436     0.74200
N2375       N  0.77451949  0.47748872  0.17205161    -0.25700
Co2376     Co  0.79204238  0.01121241  0.20129743     0.74100
C2377       C  0.83924610  0.44021239  0.25052304     0.42900
N2378       N  0.74615162  0.47648534  0.30016926     0.01300
N2379       N  0.81269728  0.47738635  0.23024824     0.01400
N2380       N  0.73512702  0.06923060  0.14950340    -0.46600
H2381       H  0.67313011  0.44584231  0.16726359     0.07200
N2382       N  0.74465249  0.47888023  0.16548815     0.01700
N2383       N  0.81086097  0.04447733  0.23182472     0.01400
C2384       C  0.83852391  0.08088276  0.25296140     0.43100
N2385       N  0.71624105  0.47676282  0.29334647    -0.25200
C2386       C  0.67050552  0.07261471  0.19368162    -0.06100
N2387       N  0.65950103  0.45483661  0.24243129    -0.46300
N2388       N  0.83319309  0.06585655  0.22590811    -0.46500
C2389       C  0.65251584  0.08632162  0.21929786     0.42800
N2390       N  0.74331817  0.04805024  0.16982758     0.01700
N2391       N  0.71429298  0.04277968  0.29638132    -0.25200
N2392       N  0.68548863  0.47769667  0.20388011    -0.25700
N2393       N  0.74428027  0.04232391  0.30278821     0.01300
H2394       H  0.67580469  0.06568788  0.31802167     0.07200
H2395       H  0.81568929  0.07012729  0.30101965     0.07300
N2396       N  0.77373195  0.04564320  0.17175866    -0.25700
N2397       N  0.80447987  0.47719274  0.26005280    -0.25300
N2398       N  0.67664681  0.04555156  0.23598315     0.01700
C2399       C  0.75980390  0.43694121  0.14295211     0.43100
C2400       C  0.70141721  0.45459139  0.31028658    -0.06600
N2401       N  0.80213874  0.04361965  0.26155125    -0.25300
H2402       H  0.81842422  0.44956020  0.29919129     0.07200
N2403       N  0.73518228  0.45524574  0.14855214    -0.46600
H2404       H  0.67656898  0.44997459  0.30998215     0.07200
C2405       C  0.72543120  0.07472095  0.33612830     0.42900
C2406       C  0.67112265  0.45275532  0.19129925    -0.06100
Co2407     Co  0.69419030  0.01067500  0.26517593     0.73800
N2408       N  0.75270729  0.45501598  0.32163714    -0.46300
C2409       C  0.76092693  0.08114671  0.13500746     0.43200
N2410       N  0.65799116  0.06780590  0.24446949    -0.46300
Co2411     Co  0.77594505  0.51093568  0.28023325     0.73900
C2412       C  0.81731942  0.06619344  0.27622080    -0.06600
C2413       C  0.78601551  0.45181142  0.15909357    -0.06200
N2414       N  0.68409983  0.04737202  0.20608172    -0.25700
N2415       N  0.83400702  0.45640856  0.22379935    -0.46400
H2416       H  0.81149683  0.06684246  0.14433351     0.07200
C2417       C  0.70058935  0.06234864  0.31613880    -0.06600
Cl2418     Cl  0.74284322  0.01109937  0.23365532    -0.49600
C2419       C  0.72538344  0.44020328  0.32941283     0.43000
H2420       H  0.67285194  0.08050133  0.16969007     0.07200
N2421       N  0.75162476  0.06033971  0.32667634    -0.46300
C2422       C  0.92532070  0.43317413  0.32460243    -0.05100
C2423       C  0.91824783  0.41722753  0.35276145    -0.32500
C2424       C  0.93397666  0.42486466  0.38015404     0.36700
C2425       C  0.95696000  0.44851775  0.37917040    -0.05500
C2426       C  0.96348411  0.46451358  0.35090977    -0.32400
C2427       C  0.94772000  0.45715120  0.32387194     0.36600
H2428       H  0.90114816  0.39838992  0.35324667     0.17000
O2429       O  0.92733463  0.40888132  0.40741718    -0.59900
H2430       H  0.98216930  0.48178501  0.34952331     0.17000
O2431       O  0.95510819  0.47274197  0.29655449    -0.60000
H2432       H  0.97247564  0.46129486  0.28708585     0.44000
H2433       H  0.93663733  0.38836509  0.40482715     0.43900
C2434       C  0.61214278  0.07825414  0.34479796    -0.05100
C2435       C  0.60181199  0.07512810  0.31442022    -0.32500
C2436       C  0.60922974  0.09736553  0.29192237     0.36700
C2437       C  0.63011419  0.12216085  0.29855251    -0.05500
C2438       C  0.64177198  0.12474795  0.32870343    -0.32400
C2439       C  0.63186450  0.10349965  0.35214876     0.36600
H2440       H  0.58556443  0.05655887  0.30870651     0.17000
O2441       O  0.59526484  0.09475115  0.26357775    -0.59900
H2442       H  0.65742597  0.14377758  0.33432722     0.17000
O2443       O  0.64013673  0.10842514  0.38223449    -0.60000
H2444       H  0.62802126  0.12640903  0.38878685     0.44000
H2445       H  0.57380500  0.10217845  0.26675604     0.43900
C2446       C  0.96140717  0.07153865  0.38013484    -0.05100
C2447       C  0.94922013  0.04962399  0.35943595    -0.32500
C2448       C  0.92975329  0.05802648  0.33535744     0.36700
C2449       C  0.92261487  0.08906187  0.33091792    -0.05500
C2450       C  0.93275992  0.11093964  0.35275530    -0.32400
C2451       C  0.95203840  0.10228659  0.37752076     0.36600
H2452       H  0.95628449  0.02594984  0.36080361     0.17000
O2453       O  0.92059800  0.03629512  0.31426803    -0.59900
H2454       H  0.92689309  0.13495321  0.34968702     0.17000
O2455       O  0.96246788  0.12368233  0.39857252    -0.60000
H2456       H  0.96729506  0.14317214  0.38681641     0.44000
H2457       H  0.90427211  0.02343009  0.32521844     0.43900
C2458       C  0.62484791  0.39272964  0.29330396    -0.05100
C2459       C  0.60980762  0.42014406  0.28488570    -0.32500
C2460       C  0.59487952  0.43787556  0.30664569     0.36700
C2461       C  0.59359138  0.42822943  0.33785494    -0.05500
C2462       C  0.60616859  0.39982586  0.34640811    -0.32400
C2463       C  0.62142398  0.38180883  0.32409901     0.36600
H2464       H  0.60817767  0.42797700  0.26117306     0.17000
O2465       O  0.58033102  0.46415228  0.29696834    -0.59900
H2466       H  0.60349362  0.39183862  0.37015730     0.17000
O2467       O  0.63238829  0.35345628  0.33215817    -0.60000
H2468       H  0.61478496  0.33873546  0.32858684     0.44000
H2469       H  0.59735394  0.47932224  0.29159074     0.43900
C2470       C  0.62144702  0.39182640  0.45842278    -0.05100
C2471       C  0.61400699  0.36814686  0.43780102    -0.32500
C2472       C  0.63367377  0.36275718  0.41193865     0.36700
C2473       C  0.65890051  0.38333055  0.40494686    -0.05500
C2474       C  0.66767545  0.40495620  0.42744857    -0.32400
C2475       C  0.65044990  0.40757703  0.45499645     0.36600
H2476       H  0.59228641  0.35508751  0.44073180     0.17000
O2477       O  0.62758165  0.33830039  0.39301048    -0.59900
H2478       H  0.68849871  0.41935544  0.42396341     0.17000
O2479       O  0.65949570  0.42920057  0.47623814    -0.60000
H2480       H  0.67341772  0.41822438  0.49065147     0.44000
H2481       H  0.60520011  0.33914647  0.38774879     0.43900
C2482       C  0.66878661  0.06783230  0.43898973    -0.05100
C2483       C  0.67181262  0.03650997  0.44653470    -0.32500
C2484       C  0.64743439  0.01973995  0.46151799     0.36700
C2485       C  0.61815046  0.03334474  0.46642237    -0.05500
C2486       C  0.61600901  0.06520771  0.46136930    -0.32400
C2487       C  0.64146717  0.08265443  0.44899237     0.36600
H2488       H  0.69315519  0.02496069  0.44068734     0.17000
O2489       O  0.65213607  0.98972624  0.47037631    -0.59900
H2490       H  0.59435315  0.07644932  0.46640472     0.17000
O2491       O  0.63872465  0.11390448  0.44534469    -0.60000
H2492       H  0.64449636  0.12262873  0.46572694     0.44000
H2493       H  0.66347400  0.99097658  0.49028608     0.43900
C2494       C  0.68286051  0.06073233  0.07052437    -0.05100
C2495       C  0.68082619  0.02841410  0.06858373    -0.32500
C2496       C  0.65288875  0.01226600  0.07572481     0.36700
C2497       C  0.62619353  0.02841209  0.08512519    -0.06400
C2498       C  0.62823520  0.06053498  0.08694876    -0.32400
C2499       C  0.65620732  0.07666632  0.08034602     0.36600
H2500       H  0.70098706  0.01563326  0.06138033     0.17000
O2501       O  0.65144012  0.98094059  0.07161072    -0.59900
H2502       H  0.60743024  0.07310800  0.09197110     0.17000
O2503       O  0.65723402  0.10802952  0.08397417    -0.60000
H2504       H  0.66675344  0.11127171  0.10460834     0.44000
H2505       H  0.64327163  0.97808099  0.05032583     0.43900
C2506       C  0.68162156  0.37426635  0.12831814    -0.05100
C2507       C  0.65346326  0.36428164  0.14287988    -0.32500
C2508       C  0.62481405  0.37384580  0.13092560     0.36700
C2509       C  0.62470759  0.39278571  0.10388688    -0.05500
C2510       C  0.65272981  0.40216385  0.08951752    -0.32400
C2511       C  0.68079986  0.39371857  0.10156621     0.36600
H2512       H  0.65375924  0.34961983  0.16355505     0.17000
O2513       O  0.59749235  0.36428612  0.14545360    -0.59900
H2514       H  0.65285992  0.41760856  0.06934142     0.17000
O2515       O  0.70743886  0.40634603  0.08802888    -0.60000
H2516       H  0.70816810  0.39861446  0.06640843     0.44000
H2517       H  0.58601846  0.38319655  0.15032506     0.43900
C2518       C  0.92363142  0.12764572  0.46939457    -0.05100
C2519       C  0.93079836  0.15682282  0.48158193    -0.32500
C2520       C  0.92663800  0.18368160  0.46371269     0.36700
C2521       C  0.91503502  0.18154395  0.43332908    -0.05500
C2522       C  0.90517560  0.15258382  0.42233226    -0.32400
C2523       C  0.90923160  0.12569505  0.44033810     0.36600
H2524       H  0.94134231  0.15861443  0.50429350     0.17000
O2525       O  0.93395972  0.21196148  0.47597243    -0.59900
H2526       H  0.89464668  0.15083086  0.39962745     0.17000
O2527       O  0.90063547  0.09753116  0.42866589    -0.60000
H2528       H  0.88019277  0.09223739  0.43870759     0.44000
H2529       H  0.95687158  0.21231584  0.47864193     0.43900
C2530       C  0.55184513  0.14898467  0.46248941    -0.05100
C2531       C  0.57005697  0.14944358  0.43524909    -0.32500
C2532       C  0.57521563  0.17690035  0.41822788     0.36700
C2533       C  0.56236105  0.20453714  0.42874543    -0.05500
C2534       C  0.54510276  0.20438377  0.45671011    -0.32400
C2535       C  0.53955335  0.17670875  0.47348846     0.36600
H2536       H  0.58069134  0.12850227  0.42758671     0.17000
O2537       O  0.59357402  0.17676186  0.39175436    -0.59900
H2538       H  0.53627550  0.22574023  0.46566630     0.17000
O2539       O  0.52286825  0.17694721  0.50101899    -0.60000
H2540       H  0.50108606  0.18085967  0.49511010     0.44000
H2541       H  0.61449855  0.18407902  0.39833949     0.43900
C2542       C  0.91939548  0.11996294  0.10943700    -0.05100
C2543       C  0.92876875  0.14992469  0.10033242    -0.32500
C2544       C  0.90979306  0.17468342  0.10577131     0.36700
C2545       C  0.88086619  0.17000563  0.12136174    -0.05500
C2546       C  0.87213217  0.14035036  0.13264795    -0.32400
C2547       C  0.89125693  0.11511093  0.12643234     0.36600
H2548       H  0.94993423  0.15383082  0.08651738     0.17000
O2549       O  0.91846207  0.20318923  0.09351640    -0.59900
H2550       H  0.85020642  0.13664237  0.14514537     0.17000
O2551       O  0.88189398  0.08588027  0.13581286    -0.60000
H2552       H  0.86556010  0.07945405  0.12100927     0.44000
H2553       H  0.93912106  0.20839765  0.10232749     0.43900
C2554       C  0.60710963  0.18790616  0.13003183    -0.05100
C2555       C  0.57941977  0.19300821  0.11397843    -0.32500
C2556       C  0.56042857  0.16893271  0.10433948     0.36700
C2557       C  0.56969995  0.13842290  0.10852782    -0.05500
C2558       C  0.59741509  0.13264505  0.12465106    -0.32400
C2559       C  0.61643552  0.15730801  0.13510822     0.36600
H2560       H  0.57327980  0.21594526  0.10671462     0.17000
O2561       O  0.53411592  0.17549325  0.08793139    -0.59900
H2562       H  0.60512047  0.10933172  0.12779409     0.17000
O2563       O  0.64513581  0.15119707  0.14717719    -0.60000
H2564       H  0.64731340  0.16379523  0.16612465     0.44000
H2565       H  0.54163367  0.18161275  0.06668877     0.43900
C2566       C  0.74278632  0.15810076  0.54685985     0.42800
N2567       N  0.72992734  0.19501131  0.51541109     0.01700
C2568       C  0.83543259  0.28846121  0.93151666    -0.06200
H2569       H  0.83576351  0.30390062  0.55052131     0.07200
C2570       C  0.72647487  0.34111255  0.54880529    -0.06500
Co2571     Co  0.78502663  0.22098172  0.98117602     0.74200
N2572       N  0.81313849  0.27476373  0.51641496    -0.25700
Co2573     Co  0.78892072  0.30295326  0.48513468     0.74100
C2574       C  0.75502849  0.35159039  0.56391655     0.42900
N2575       N  0.68416626  0.27515097  0.52581676     0.01300
N2576       N  0.76633762  0.32499824  0.52312623     0.01400
N2577       N  0.82634121  0.23777738  0.92591704    -0.46600
H2578       H  0.79484194  0.16570072  0.53450577     0.07200
N2579       N  0.81120045  0.24447339  0.51341144     0.01700
N2580       N  0.76244806  0.32852415  0.95527652     0.01400
C2581       C  0.74328674  0.35980200  0.92019393     0.43100
N2582       N  0.68360629  0.24504448  0.52174750    -0.25200
C2583       C  0.76465122  0.17513679  0.92683117    -0.06100
N2584       N  0.71836241  0.17286845  0.53431334    -0.46300
N2585       N  0.76992779  0.34551068  0.92952701    -0.46500
C2586       C  0.73441467  0.16334449  0.91496194     0.42800
N2587       N  0.80775008  0.24888270  0.94746420     0.01700
N2588       N  0.68195456  0.25019831  0.95403540    -0.25200
N2589       N  0.76063139  0.19501695  0.51365464    -0.25700
N2590       N  0.68074170  0.28035246  0.95718966     0.01300
H2591       H  0.65918340  0.21827365  0.92353345     0.07200
H2592       H  0.69474291  0.35287611  0.94339869     0.07300
N2593       N  0.81208106  0.27886891  0.95110755    -0.25700
N2594       N  0.73556029  0.32445309  0.52474634    -0.25300
N2595       N  0.72733868  0.19988219  0.94843265     0.01700
C2596       C  0.83957788  0.25089125  0.55438888     0.43100
C2597       C  0.66694546  0.23145118  0.54469725    -0.06600
N2598       N  0.73233330  0.32917257  0.96141693    -0.25300
H2599       H  0.70248353  0.34503038  0.55535103     0.07200
N2600       N  0.82638801  0.22978524  0.53543465    -0.46600
H2601       H  0.66218069  0.20688345  0.54670375     0.07200
C2602       C  0.64947235  0.26997614  0.91858863     0.42900
C2603       C  0.77093451  0.17275104  0.53288511    -0.06100
Co2604     Co  0.70544292  0.22191080  0.98532275     0.73800
N2605       N  0.66847530  0.28312757  0.55145593    -0.46300
C2606       C  0.84524328  0.26088548  0.91465005     0.43200
N2607       N  0.71291295  0.17997342  0.93017342    -0.46300
Co2608     Co  0.70747252  0.30325987  0.49206834     0.73900
C2609       C  0.71939627  0.34935467  0.94291313    -0.06600
C2610       C  0.83072732  0.28113988  0.54163815    -0.06200
N2611       N  0.75787091  0.19773838  0.94721354    -0.25700
N2612       N  0.77903567  0.34032745  0.54681197    -0.46400
H2613       H  0.84629761  0.31125387  0.93121711     0.07200
C2614       C  0.66406271  0.24185706  0.93017192    -0.06600
Cl2615     Cl  0.74637814  0.26284761  0.48534506    -0.49600
C2616       C  0.65694748  0.25639198  0.56460975     0.43000
H2617       H  0.78746623  0.16562282  0.92341603     0.07200
N2618       N  0.66059896  0.29279307  0.93741545    -0.46300
C2619       C  0.64071964  0.25154914  0.59534185     0.03500
C2620       C  0.64356653  0.22210423  0.60943444    -0.12700
C2621       C  0.62377441  0.21265693  0.63378175     0.01000
C2622       C  0.61020691  0.23572422  0.65110634    -0.11200
C2623       C  0.60071275  0.26240245  0.63502917     0.03500
C2624       C  0.61756334  0.27138879  0.60735858    -0.10600
H2625       H  0.65722953  0.20454460  0.59852929     0.09100
H2626       H  0.59739758  0.22825805  0.67196959     0.06600
H2627       H  0.61061880  0.29128510  0.59382054     0.06400
C2628       C  0.85337827  0.24162788  0.58501893     0.03500
C2629       C  0.87286362  0.26074766  0.60392212    -0.12700
C2630       C  0.88443368  0.24841323  0.63250642     0.01000
C2631       C  0.87309753  0.21926809  0.64270582    -0.11200
C2632       C  0.86323785  0.19851113  0.62053196     0.03500
C2633       C  0.85000542  0.21009288  0.59345461    -0.10600
H2634       H  0.88079220  0.28330044  0.59542677     0.09100
H2635       H  0.88180039  0.20951064  0.66425692     0.06600
H2636       H  0.84089263  0.19353322  0.57705718     0.06400
C2637       C  0.57896958  0.26450849  0.86312357     0.03500
C2638       C  0.60838736  0.27502517  0.87482397    -0.12700
C2639       C  0.61687461  0.26793997  0.90626703     0.01000
C2640       C  0.59591894  0.25017419  0.92482930    -0.11200
C2641       C  0.56928884  0.23659511  0.91227787     0.03500
C2642       C  0.55999018  0.24513148  0.88241787    -0.10600
H2643       H  0.62496820  0.28693733  0.85930501     0.09100
H2644       H  0.60287706  0.24275080  0.94792996     0.06600
H2645       H  0.53910279  0.23429627  0.87321530     0.06400
C2646       C  0.91995610  0.24344148  0.86988261     0.03500
C2647       C  0.89349866  0.26023083  0.87901612    -0.12700
C2648       C  0.87793143  0.25287380  0.90760364     0.01000
C2649       C  0.89025695  0.23051295  0.92755671    -0.11200
C2650       C  0.91426708  0.21203931  0.91773203     0.03500
C2651       C  0.92937138  0.21867986  0.88913971    -0.10600
H2652       H  0.88388194  0.27702956  0.86314317     0.09100
H2653       H  0.87832413  0.22455008  0.94941624     0.06600
H2654       H  0.94812076  0.20408327  0.88177518     0.06400
N2655       N  0.98984795  0.11168931  0.96840971    -0.36300
N2656       N  0.54298907  0.10419986  0.53375881    -0.56800
N2657       N  0.99798060  0.09593408  0.58279430    -0.36300
N2658       N  0.94463122  0.08768319  0.53922036    -0.56800
C2659       C  0.52131670  0.10325751  0.97255252     0.27300
C2660       C  0.96765041  0.09061028  0.97735790     0.27300
C2661       C  0.51738715  0.10227020  0.59942087     0.27300
C2662       C  0.97299396  0.09537077  0.60275130     0.27300
C2663       C  0.56290314  0.11875587  0.00668901     0.35900
C2664       C  0.56034502  0.11044854  0.55881053     0.35900
C2665       C  0.92401407  0.08996374  0.01289127     0.35900
C2666       C  0.92781040  0.09019244  0.56561839     0.35900
C2667       C  0.51682332  0.07349424  0.98376761    -0.21500
C2668       C  0.98116429  0.06398258  0.98837711    -0.21500
C2669       C  0.50632730  0.10550427  0.62970833    -0.21500
C2670       C  0.98326971  0.09897352  0.63294785    -0.21500
C2671       C  0.58986125  0.13457539  0.01455757    -0.22600
C2672       C  0.58887656  0.12364675  0.54892247    -0.22600
C2673       C  0.89386011  0.09541146  0.02228518    -0.22600
C2674       C  0.89667245  0.09475783  0.55812168    -0.22600
C2675       C  0.54768387  0.12184899  0.97803001    -0.17900
C2676       C  0.93674716  0.09845662  0.98355222    -0.17900
C2677       C  0.94100549  0.09767858  0.59477897    -0.17900
C2678       C  0.54832904  0.11168818  0.58984053    -0.17900
H2679       H  0.53408312  0.05948845  0.99425306     0.15000
H2680       H  0.96945717  0.04390749  0.99893058     0.15000
H2681       H  0.51948111  0.11289137  0.64970107     0.15000
H2682       H  0.96893871  0.10081910  0.65379053     0.15000
H2683       H  0.60504029  0.14849149  0.99929128     0.13300
H2684       H  0.60735930  0.13271493  0.56322357     0.13200
H2685       H  0.87475544  0.10221436  0.00773794     0.13300
H2686       H  0.87751874  0.09942460  0.57382830     0.13200
H2687       H  0.98650899  0.13468368  0.96196872     0.26500
H2688       H  0.99677876  0.09618257  0.55865196     0.26500
C2689       C  0.57324444  0.17547805  0.72827485     0.42800
N2690       N  0.53433288  0.20387290  0.74182030     0.01700
C2691       C  0.92949630  0.28611003  0.65691704    -0.06200
H2692       H  0.55898678  0.31993095  0.65103103     0.07200
C2693       C  0.55025647  0.34722170  0.75716900    -0.06500
Co2694     Co  0.99438708  0.22301548  0.69037814     0.74200
N2695       N  0.52469570  0.28555231  0.66653252    -0.25700
Co2696     Co  0.99081575  0.30433841  0.69445387     0.74100
C2697       C  0.56655720  0.35855980  0.72875461     0.42900
N2698       N  0.53302509  0.28037626  0.79676865     0.01300
N2699       N  0.52498477  0.33240304  0.71689630     0.01400
N2700       N  0.93431669  0.23453417  0.65616788    -0.46600
H2701       H  0.55968008  0.17964557  0.67634394     0.07200
N2702       N  0.52411206  0.25519725  0.66459236     0.01700
N2703       N  0.95691856  0.32496615  0.72425418     0.01400
C2704       C  0.91944285  0.35172523  0.74471818     0.43100
N2705       N  0.53563056  0.25037339  0.79340757    -0.25200
C2706       C  0.94077948  0.17299514  0.71191160    -0.06100
N2707       N  0.55790044  0.18810718  0.75246038    -0.46300
N2708       N  0.93472262  0.34509646  0.71750189    -0.46500
C2709       C  0.92953154  0.16164694  0.74302772     0.42800
N2710       N  0.95764690  0.24752283  0.67108624     0.01700
N2711       N  0.96875193  0.23880570  0.79992149    -0.25200
N2712       N  0.53208637  0.20301324  0.71125141    -0.25700
N2713       N  0.96567752  0.26877615  0.80270568     0.01300
H2714       H  0.95011131  0.19937619  0.82568845     0.07200
H2715       H  0.93206933  0.33466596  0.79385319     0.07300
N2716       N  0.95573144  0.27792984  0.67197694    -0.25700
N2717       N  0.52567609  0.33071012  0.74766432    -0.25300
N2718       N  0.96642704  0.19589336  0.74820831     0.01700
C2719       C  0.56694984  0.26876358  0.64013599     0.43100
C2720       C  0.55802310  0.24054537  0.81236142    -0.06600
N2721       N  0.95844453  0.31955721  0.75457330    -0.25300
H2722       H  0.55725629  0.34910715  0.78119283     0.07200
N2723       N  0.54802561  0.24482321  0.64898287    -0.46600
H2724       H  0.56269971  0.21653233  0.81711915     0.07200
C2725       C  0.93578148  0.24823747  0.83888920     0.42900
C2726       C  0.55565752  0.18532706  0.70041489    -0.06100
Co2727     Co  0.00158863  0.21987198  0.77035582     0.73800
N2728       N  0.55168802  0.29125313  0.81889258    -0.46300
C2729       C  0.91523223  0.25691018  0.64634017     0.43200
N2730       N  0.94669784  0.17751208  0.76353311    -0.46300
Co2731     Co  0.99596899  0.29821601  0.77591520     0.73900
C2732       C  0.93513711  0.33368727  0.76880742    -0.06600
C2733       C  0.55117223  0.29621926  0.65190574    -0.06200
N2734       N  0.96349322  0.19457180  0.71776815    -0.25700
N2735       N  0.54941264  0.34824110  0.70460815    -0.46400
H2736       H  0.92138159  0.30937300  0.65401840     0.07200
C2737       C  0.95080133  0.22405333  0.82141558    -0.06600
Cl2738     Cl  0.99575110  0.26142725  0.73278909    -0.49600
C2739       C  0.56916255  0.26762086  0.82969400     0.43000
H2740       H  0.93375031  0.16557126  0.68905782     0.07200
N2741       N  0.94652550  0.27557018  0.82627000    -0.46300
C2742       C  0.75495204  0.36194238  0.59706387     0.03500
C2743       C  0.73104284  0.34795020  0.61561152    -0.12700
C2744       C  0.71352041  0.36642310  0.63494713     0.01000
C2745       C  0.72881093  0.39119508  0.64875959    -0.11200
C2746       C  0.75454513  0.40565034  0.63336230     0.03500
C2747       C  0.76748258  0.39113209  0.60655528    -0.10600
H2748       H  0.71969942  0.32691685  0.60767319     0.09100
H2749       H  0.71591719  0.40380785  0.66612256     0.06600
H2750       H  0.78382973  0.40388597  0.59144837     0.06400
C2751       C  0.74025380  0.12703064  0.56233003     0.03500
C2752       C  0.76056463  0.11788470  0.58645240    -0.12700
C2753       C  0.75771287  0.08776009  0.59970736     0.01000
C2754       C  0.73718716  0.06647119  0.58586538    -0.11200
C2755       C  0.71283190  0.07711633  0.56786945     0.03500
C2756       C  0.71527109  0.10695810  0.55470777    -0.10600
H2757       H  0.77647214  0.13469189  0.59638792     0.09100
H2758       H  0.73481260  0.04341467  0.59606162     0.06600
H2759       H  0.69703162  0.11484863  0.53956958     0.06400
C2760       C  0.72603549  0.13100293  0.90535235     0.03500
C2761       C  0.70620329  0.11374661  0.92588915    -0.12700
C2762       C  0.69307348  0.08527613  0.91755590     0.01000
C2763       C  0.70088392  0.07302627  0.88834749    -0.11200
C2764       C  0.72058737  0.08925052  0.86682654     0.03500
C2765       C  0.73339180  0.11850332  0.87564533    -0.10600
H2766       H  0.70033046  0.12293616  0.94851436     0.09100
H2767       H  0.69097069  0.05087517  0.88205570     0.06600
H2768       H  0.74771981  0.13190978  0.85914032     0.06400
C2769       C  0.71891593  0.41361888  0.85350026     0.03500
C2770       C  0.74213703  0.39711823  0.87068405    -0.12700
C2771       C  0.73281363  0.36930189  0.88769659     0.01000
C2772       C  0.70253885  0.35786984  0.88155501    -0.11200
C2773       C  0.67978537  0.37993505  0.87926465     0.03500
C2774       C  0.68769232  0.40660618  0.86185425    -0.10600
H2775       H  0.76579762  0.40619192  0.87181839     0.09100
H2776       H  0.69514698  0.33561120  0.89139375     0.06600
H2777       H  0.67003887  0.42348192  0.85794629     0.06400
N2778       N  0.59344417  0.02857917  0.52975946    -0.36300
N2779       N  0.58319593  0.46048538  0.58332005    -0.56800
N2780       N  0.58866236  0.41617247  0.53244812    -0.36300
N2781       N  0.58137892  0.46253478  0.98388858    -0.56800
C2782       C  0.57870526  0.01762569  0.55577161     0.27300
C2783       C  0.57761540  0.01966798  0.00534012     0.27300
C2784       C  0.58812281  0.39738078  0.55809891     0.27300
C2785       C  0.59125128  0.39888715  0.00967611     0.27300
C2786       C  0.58986933  0.98274524  0.59831438     0.35900
C2787       C  0.59200096  0.43629331  0.60069803     0.35900
C2788       C  0.58724278  0.98505294  0.96398324     0.35900
C2789       C  0.58881389  0.43830667  0.96631561     0.35900
C2790       C  0.54966652  0.00519835  0.54863789    -0.21500
C2791       C  0.54938067  0.00662424  0.01583987    -0.21500
C2792       C  0.58809411  0.36686147  0.54886148    -0.21500
C2793       C  0.59308378  0.36842192  0.01939735    -0.21500
C2794       C  0.60339960  0.97430278  0.62600840    -0.22600
C2795       C  0.60523883  0.44681906  0.62812853    -0.22600
C2796       C  0.59896526  0.97672593  0.93568430    -0.22600
C2797       C  0.59626219  0.44841010  0.93614730    -0.22600
C2798       C  0.59506459  0.01138343  0.58305471    -0.17900
C2799       C  0.59161306  0.01450674  0.97647707    -0.17900
C2800       C  0.59652866  0.40890684  0.97837078    -0.17900
C2801       C  0.59628887  0.40643238  0.58858980    -0.17900
H2802       H  0.53319934  0.99342307  0.56438294     0.15000
H2803       H  0.53171934  0.99539220  0.00194091     0.15000
H2804       H  0.58954034  0.34663442  0.56386439     0.15000
H2805       H  0.59652485  0.34856706  0.00488525     0.15000
H2806       H  0.61540317  0.98926239  0.64210971     0.13300
H2807       H  0.61641736  0.43312850  0.64581032     0.13200
H2808       H  0.61125823  0.99183786  0.91946280     0.13300
H2809       H  0.60554236  0.43494759  0.91732747     0.13200
H2810       H  0.61654873  0.03657935  0.52773522     0.26500
H2811       H  0.59207225  0.44001569  0.53216443     0.26500
C2812       C  0.60044161  0.36752503  0.72787471     0.03500
C2813       C  0.61367567  0.39316803  0.71033670    -0.12700
C2814       C  0.64394209  0.40518264  0.71818768     0.01000
C2815       C  0.65902897  0.39111522  0.74346160    -0.11200
C2816       C  0.64034119  0.37495702  0.76528007     0.03500
C2817       C  0.61782925  0.35570101  0.75268797    -0.10600
H2818       H  0.59926514  0.40600960  0.69455531     0.09100
H2819       H  0.68012526  0.40202438  0.75217745     0.06600
H2820       H  0.60798814  0.33759680  0.76778750     0.06400
C2821       C  0.86881872  0.09612583  0.76117238     0.03500
C2822       C  0.88507964  0.11954479  0.74310431    -0.12700
C2823       C  0.91336397  0.13258574  0.75443037     0.01000
C2824       C  0.92540457  0.12058850  0.78227611    -0.11200
C2825       C  0.90882608  0.09940254  0.80085789     0.03500
C2826       C  0.88088108  0.08706655  0.79021469    -0.10600
H2827       H  0.87522513  0.12834710  0.72176012     0.09100
H2828       H  0.94784720  0.12868431  0.79059333     0.06600
H2829       H  0.86884958  0.06983201  0.80478059     0.06400
C2830       C  0.60346136  0.15882169  0.73354839     0.03500
C2831       C  0.61587328  0.16248553  0.76361596    -0.12700
C2832       C  0.63964220  0.14398636  0.77388065     0.01000
C2833       C  0.65927888  0.13216308  0.75139468    -0.11200
C2834       C  0.64538359  0.12095558  0.72433126     0.03500
C2835       C  0.61712981  0.13548803  0.71444081    -0.10600
H2836       H  0.60346453  0.17504913  0.78131241     0.09100
H2837       H  0.67991609  0.12099655  0.75990900     0.06600
H2838       H  0.60460339  0.12680623  0.69462130     0.06400
C2839       C  0.86419548  0.42144586  0.75534174     0.03500
C2840       C  0.87751465  0.39501804  0.74085670    -0.12700
C2841       C  0.90549742  0.38227801  0.75300304     0.01000
C2842       C  0.91924241  0.39686756  0.77858177    -0.11200
C2843       C  0.90508653  0.42092661  0.79358877     0.03500
C2844       C  0.87871002  0.43373321  0.78155646    -0.10600
H2845       H  0.86575842  0.38397417  0.72172375     0.09100
H2846       H  0.94083551  0.38875102  0.78811367     0.06600
H2847       H  0.86933148  0.45348636  0.79330852     0.06400
N2848       N  0.99212727  0.50977588  0.90333946    -0.36300
N2849       N  0.04403663  0.05342085  0.89156659    -0.56800
N2850       N  0.57836920  0.50581629  0.86803981    -0.36300
N2851       N  0.03169616  0.45841128  0.88762687    -0.56800
C2852       C  0.98242091  0.03251062  0.91474850     0.27300
C2853       C  0.97426089  0.48527088  0.91261554     0.27300
C2854       C  0.60107350  0.02758023  0.86875190     0.27300
C2855       C  0.59514169  0.48044173  0.86257741     0.27300
C2856       C  0.01822663  0.07070291  0.88907216     0.35900
C2857       C  0.56476962  0.07096417  0.87821008     0.35900
C2858       C  0.00396418  0.44299390  0.88962760     0.35900
C2859       C  0.55368566  0.43964959  0.87094324     0.35900
C2860       C  0.95579813  0.02491928  0.93224648    -0.21500
C2861       C  0.94830350  0.49532978  0.92862005    -0.21500
C2862       C  0.63003972  0.01661808  0.86054252    -0.21500
C2863       C  0.62613043  0.48904031  0.85748915    -0.21500
C2864       C  0.02532914  0.09741409  0.87188967    -0.22600
C2865       C  0.55400399  0.09917470  0.86790531    -0.22600
C2866       C  0.00566546  0.41501053  0.87454526    -0.22600
C2867       C  0.53915654  0.41192510  0.86319385    -0.22600
C2868       C  0.98776820  0.06082225  0.89884149    -0.17900
C2869       C  0.97560949  0.45660511  0.89804183    -0.17900
C2870       C  0.58292393  0.45016116  0.85902304    -0.17900
C2871       C  0.59385864  0.05924789  0.86867478    -0.17900
H2872       H  0.93830905  0.04063544  0.94020326     0.15000
H2873       H  0.92819410  0.48142224  0.93616426     0.15000
H2874       H  0.65100654  0.03005258  0.85535288     0.15000
H2875       H  0.64514760  0.47420771  0.85175473     0.15000
H2876       H  0.01042345  0.11524332  0.86378462     0.13300
H2877       H  0.56624195  0.11680432  0.85400262     0.13200
H2878       H  0.98702547  0.39832585  0.87073558     0.13300
H2879       H  0.54795282  0.39413309  0.84828791     0.13200
H2880       H  0.00949990  0.50925307  0.88649352     0.26500
H2881       H  0.55444635  0.50656380  0.86971005     0.26500
C2882       C  0.65281187  0.43848528  0.71417046     0.42800
N2883       N  0.67760527  0.47855579  0.73196098     0.01700
C2884       C  0.78804796  0.06496975  0.64846022    -0.06200
H2885       H  0.80908550  0.44555472  0.65887882     0.07200
C2886       C  0.81431539  0.45032837  0.77096230    -0.06500
Co2887     Co  0.71338868  0.01458680  0.68508728     0.74200
N2888       N  0.77399766  0.47882082  0.67012534    -0.25700
Co2889     Co  0.79270350  0.01113409  0.70060088     0.74100
C2890       C  0.83427868  0.43647550  0.74692396     0.42900
N2891       N  0.74459405  0.47503933  0.79905504     0.01300
N2892       N  0.81096831  0.47674993  0.72838594     0.01400
N2893       N  0.73642201  0.07015724  0.64880100    -0.46600
H2894       H  0.67319788  0.44752059  0.66471476     0.07200
N2895       N  0.74412819  0.48034100  0.66370202     0.01700
N2896       N  0.81151008  0.04428794  0.73114544     0.01400
C2897       C  0.83868450  0.08099236  0.75227742     0.43100
N2898       N  0.71461988  0.47561704  0.79257580    -0.25200
C2899       C  0.67179578  0.07431312  0.69293003    -0.06100
N2900       N  0.65866403  0.45529512  0.73986435    -0.46300
N2901       N  0.83379732  0.06571219  0.72529487    -0.46500
C2902       C  0.65363406  0.08780299  0.71863912     0.42800
N2903       N  0.74450499  0.04886013  0.66906432     0.01700
N2904       N  0.71437205  0.04349141  0.79534560    -0.25200
N2905       N  0.68501511  0.47877747  0.70199952    -0.25700
N2906       N  0.74434319  0.04303362  0.80181307     0.01300
H2907       H  0.67582405  0.06660911  0.81673729     0.07200
H2908       H  0.81525034  0.07066183  0.80012113     0.07300
N2909       N  0.77488058  0.04579865  0.67055606    -0.25700
N2910       N  0.80184537  0.47532488  0.75791135    -0.25300
N2911       N  0.67730775  0.04650255  0.73486412     0.01700
C2912       C  0.75933092  0.43905094  0.64029740     0.43100
C2913       C  0.69992793  0.45369237  0.81023838    -0.06600
N2914       N  0.80242190  0.04366122  0.76076833    -0.25300
H2915       H  0.81198484  0.44386314  0.79536482     0.07200
N2916       N  0.73463638  0.45709332  0.64629781    -0.46600
H2917       H  0.67502784  0.44934049  0.81062560     0.07200
C2918       C  0.72542437  0.07566458  0.83493170     0.42900
C2919       C  0.67088838  0.45403904  0.68884451    -0.06100
Co2920     Co  0.69446504  0.01135496  0.76410135     0.73800
N2921       N  0.75131737  0.45391590  0.82083433    -0.46300
C2922       C  0.76209027  0.08143417  0.63359799     0.43200
N2923       N  0.65887009  0.06885764  0.74353108    -0.46300
Co2924     Co  0.77439336  0.50931419  0.77921286     0.73900
C2925       C  0.81728621  0.06643532  0.77540341    -0.06600
C2926       C  0.78556379  0.45352452  0.65659285    -0.06200
N2927       N  0.68502229  0.04866780  0.70504381    -0.25700
N2928       N  0.83093606  0.45475426  0.72120452    -0.46400
H2929       H  0.81253231  0.06596416  0.64208641     0.07200
C2930       C  0.70061666  0.06319121  0.81494966    -0.06600
Cl2931     Cl  0.74325929  0.01161811  0.73277892    -0.49600
C2932       C  0.72416694  0.43928207  0.82939360     0.43000
H2933       H  0.67443118  0.08255579  0.66908370     0.07200
N2934       N  0.75162831  0.06118220  0.82562472    -0.46300
C2935       C  0.91840651  0.43299191  0.82215594    -0.05100
C2936       C  0.91359461  0.41695260  0.85063939    -0.32500
C2937       C  0.92975579  0.42615514  0.87718699     0.36700
C2938       C  0.95098818  0.45131497  0.87489393    -0.05500
C2939       C  0.95423670  0.46812406  0.84664627    -0.32400
C2940       C  0.93797634  0.45922313  0.82045873     0.36600
H2941       H  0.89827405  0.39669408  0.85189589     0.17000
O2942       O  0.92580877  0.40976802  0.90465129    -0.59900
H2943       H  0.97155015  0.48665833  0.84418192     0.17000
O2944       O  0.94281730  0.47507581  0.79277968    -0.60000
H2945       H  0.96086879  0.46522195  0.78267461     0.44000
H2946       H  0.94209692  0.39398403  0.90442219     0.43900
C2947       C  0.61164029  0.07863338  0.84556816    -0.05100
C2948       C  0.60373128  0.07382121  0.81465525    -0.32500
C2949       C  0.61127349  0.09577081  0.79195544     0.36700
C2950       C  0.63042348  0.12174961  0.79903150    -0.05500
C2951       C  0.63969862  0.12606407  0.82980143    -0.32400
C2952       C  0.62927676  0.10517934  0.85331053     0.36600
H2953       H  0.58875488  0.05434294  0.80862036     0.17000
O2954       O  0.59840214  0.09213752  0.76320236    -0.59900
H2955       H  0.65357706  0.14626661  0.83578622     0.17000
O2956       O  0.63477232  0.11177696  0.88371676    -0.60000
H2957       H  0.61960028  0.12777711  0.88910337     0.44000
H2958       H  0.57737590  0.10097665  0.76490336     0.43900
C2959       C  0.96120754  0.07125618  0.87960437    -0.05100
C2960       C  0.94687684  0.04927445  0.86032383    -0.32500
C2961       C  0.92763859  0.05795051  0.83615810     0.36700
C2962       C  0.92227822  0.08927846  0.83070334    -0.05500
C2963       C  0.93389819  0.11126758  0.85171570    -0.32400
C2964       C  0.95336254  0.10240640  0.87623432     0.36600
H2965       H  0.95244277  0.02522625  0.86240018     0.17000
O2966       O  0.91743763  0.03601626  0.81569830    -0.59900
H2967       H  0.92919362  0.13548928  0.84804225     0.17000
O2968       O  0.96541877  0.12391657  0.89636524    -0.60000
H2969       H  0.96997105  0.14320576  0.88417093     0.44000
H2970       H  0.90156221  0.02328056  0.82744700     0.43900
C2971       C  0.62732041  0.39430183  0.79054630    -0.05100
C2972       C  0.61181653  0.42157745  0.78246168    -0.32500
C2973       C  0.59874545  0.44013352  0.80473819     0.36700
C2974       C  0.59890413  0.43087666  0.83600952    -0.05500
C2975       C  0.61151510  0.40247403  0.84428295    -0.32400
C2976       C  0.62584302  0.38411594  0.82170054     0.36600
H2977       H  0.60834524  0.42852608  0.75869719     0.17000
O2978       O  0.58382779  0.46631934  0.79549200    -0.59900
H2979       H  0.60953652  0.39480814  0.86812216     0.17000
O2980       O  0.63771742  0.35617684  0.82996791    -0.60000
H2981       H  0.62048171  0.34091856  0.82687776     0.44000
H2982       H  0.60065468  0.48204840  0.79141151     0.43900
C2983       C  0.62045341  0.39285041  0.95951070    -0.05100
C2984       C  0.61225692  0.36980757  0.93831833    -0.32500
C2985       C  0.63218922  0.36372734  0.91277482     0.36700
C2986       C  0.65859723  0.38306986  0.90672253    -0.05500
C2987       C  0.66774268  0.40419490  0.92950967    -0.32400
C2988       C  0.65001274  0.40755682  0.95658790     0.36600
H2989       H  0.58994671  0.35770229  0.94070115     0.17000
O2990       O  0.62517888  0.34001944  0.89313211    -0.59900
H2991       H  0.68923293  0.41768464  0.92655472     0.17000
O2992       O  0.65979082  0.42842135  0.97827509    -0.60000
H2993       H  0.66819172  0.41579074  0.99553233     0.44000
H2994       H  0.60352057  0.34308517  0.88623320     0.43900
C2995       C  0.66937715  0.06903682  0.93823793    -0.05100
C2996       C  0.67309645  0.03789571  0.94619734    -0.32500
C2997       C  0.64911332  0.02085981  0.96146216     0.36700
C2998       C  0.61949839  0.03389519  0.96602143    -0.05500
C2999       C  0.61677882  0.06570195  0.96087737    -0.32400
C3000       C  0.64195923  0.08353030  0.94848064     0.36600
H3001       H  0.69468974  0.02673379  0.94047821     0.17000
O3002       O  0.65463127  0.99120645  0.97106665    -0.59900
H3003       H  0.59496205  0.07661827  0.96602215     0.17000
O3004       O  0.63894537  0.11480929  0.94531026    -0.60000
H3005       H  0.64405449  0.12320692  0.96601689     0.44000
H3006       H  0.65804332  0.99246837  0.99382090     0.43900
C3007       C  0.68235810  0.06018498  0.57084377    -0.05100
C3008       C  0.68039716  0.02828842  0.56566510    -0.32500
C3009       C  0.65281537  0.01135322  0.57244599     0.36700
C3010       C  0.62653006  0.02630046  0.58472626    -0.06400
C3011       C  0.62860980  0.05793752  0.59002169    -0.32400
C3012       C  0.65633699  0.07474365  0.58401431     0.36600
H3013       H  0.70029311  0.01653115  0.55617577     0.17000
O3014       O  0.65111064  0.98067245  0.56508052    -0.59900
H3015       H  0.60804235  0.06961390  0.59754433     0.17000
O3016       O  0.65792472  0.10531115  0.59163745    -0.60000
H3017       H  0.66898861  0.10586001  0.61174507     0.44000
H3018       H  0.64251706  0.98005471  0.54377135     0.43900
C3019       C  0.68259154  0.37386410  0.62259214    -0.05100
C3020       C  0.65490560  0.36034703  0.63498063    -0.32500
C3021       C  0.62594694  0.36958734  0.62365177     0.36700
C3022       C  0.62492638  0.39177208  0.59947820    -0.05500
C3023       C  0.65254587  0.40381806  0.58624477    -0.32400
C3024       C  0.68103387  0.39551411  0.59762431     0.36600
H3025       H  0.65574237  0.34341713  0.65377742     0.17000
O3026       O  0.59900971  0.35702665  0.63622215    -0.59900
H3027       H  0.65192787  0.42099948  0.56762282     0.17000
O3028       O  0.70721476  0.41021007  0.58530553    -0.60000
H3029       H  0.70863341  0.40387876  0.56322983     0.44000
H3030       H  0.59204919  0.37192910  0.65194289     0.43900
C3031       C  0.92557232  0.12715169  0.96871156    -0.05100
C3032       C  0.93227780  0.15551976  0.98287967    -0.32500
C3033       C  0.92915211  0.18330674  0.96636520     0.36700
C3034       C  0.91920604  0.18296950  0.93527611    -0.05500
C3035       C  0.90992350  0.15475284  0.92215788    -0.32400
C3036       C  0.91273660  0.12692098  0.93889052     0.36600
H3037       H  0.94168780  0.15595152  0.00617376     0.17000
O3038       O  0.93620589  0.21063474  0.98062491    -0.59900
H3039       H  0.90057998  0.15434968  0.89885597     0.17000
O3040       O  0.90425845  0.09956217  0.92541905    -0.60000
H3041       H  0.88330050  0.09417402  0.93423217     0.44000
H3042       H  0.95887199  0.21421250  0.97688168     0.43900
C3043       C  0.55110056  0.15150912  0.96063442    -0.05100
C3044       C  0.56134537  0.15158236  0.92961533    -0.32500
C3045       C  0.56459354  0.17926200  0.91261826     0.36700
C3046       C  0.55763673  0.20744842  0.92686960    -0.05500
C3047       C  0.54627083  0.20724930  0.95765386    -0.32400
C3048       C  0.54258866  0.17946905  0.97443590     0.36600
H3049       H  0.56794654  0.13020151  0.91910419     0.17000
O3050       O  0.57633587  0.17874474  0.88269780    -0.59900
H3051       H  0.54142487  0.22878427  0.96901156     0.17000
O3052       O  0.53169136  0.17997925  0.00463808    -0.60000
H3053       H  0.50967884  0.17261744  0.00382673     0.44000
H3054       H  0.59906708  0.18278478  0.88456972     0.43900
C3055       C  0.92473713  0.12323469  0.60999545    -0.05100
C3056       C  0.93206488  0.15243000  0.59714104    -0.32500
C3057       C  0.91153304  0.17631808  0.59994576     0.36700
C3058       C  0.88344074  0.17179384  0.61705769    -0.05500
C3059       C  0.87724654  0.14347399  0.63262117    -0.32400
C3060       C  0.89770141  0.11890119  0.62882866     0.36600
H3061       H  0.95253174  0.15588975  0.58220136     0.17000
O3062       O  0.91827488  0.20369099  0.58438465    -0.59900
H3063       H  0.85630126  0.14022537  0.64681747     0.17000
O3064       O  0.89070500  0.09076329  0.64264566    -0.60000
H3065       H  0.88132440  0.07798673  0.62611748     0.44000
H3066       H  0.93576971  0.21345583  0.59574154     0.43900
C3067       C  0.60346167  0.18522558  0.62749932    -0.05100
C3068       C  0.57510143  0.19036850  0.61259103    -0.32500
C3069       C  0.55529131  0.16612707  0.60442953     0.36700
C3070       C  0.56426209  0.13552724  0.60922998    -0.05500
C3071       C  0.59219645  0.12997311  0.62500838    -0.32400
C3072       C  0.61216002  0.15464493  0.63360518     0.36600
H3073       H  0.56893687  0.21339518  0.60549473     0.17000
O3074       O  0.52806271  0.17252193  0.58951741    -0.59900
H3075       H  0.59934369  0.10668198  0.62928840     0.17000
O3076       O  0.64104046  0.14837436  0.64512469    -0.60000
H3077       H  0.64421947  0.16187365  0.66327784     0.44000
H3078       H  0.53378351  0.17447217  0.56707339     0.43900
C3079       C  0.74788808  0.65950559  0.04819274     0.42800
N3080       N  0.73404339  0.69421245  0.01483106     0.01700
C3081       C  0.83405984  0.79226529  0.42912661    -0.06200
H3082       H  0.83513302  0.80486480  0.05081050     0.07200
C3083       C  0.72481566  0.83678834  0.04939628    -0.06500
Co3084     Co  0.78600705  0.72304369  0.47857735     0.74200
N3085       N  0.81445978  0.77532118  0.01587613    -0.25700
Co3086     Co  0.78928061  0.80290044  0.98457123     0.74100
C3087       C  0.75257558  0.84848903  0.06506244     0.42900
N3088       N  0.68501366  0.77176506  0.02465201     0.01300
N3089       N  0.76570796  0.82406361  0.02306896     0.01400
N3090       N  0.82650208  0.74140598  0.42308088    -0.46600
H3091       H  0.79976816  0.66771216  0.03547358     0.07200
N3092       N  0.81375252  0.74502405  0.01263695     0.01700
N3093       N  0.76049907  0.82960016  0.45405599     0.01400
C3094       C  0.74020146  0.85861187  0.41802968     0.43100
N3095       N  0.68534868  0.74170309  0.02065748    -0.25200
C3096       C  0.76562841  0.67658256  0.42458289    -0.06100
N3097       N  0.72308437  0.67300826  0.03501113    -0.46300
N3098       N  0.76733920  0.84562771  0.42762537    -0.46500
C3099       C  0.73524314  0.66454658  0.41318522     0.42800
N3100       N  0.80768341  0.75173836  0.44485563     0.01700
N3101       N  0.68243642  0.74997984  0.45281654    -0.25200
N3102       N  0.76472758  0.69481773  0.01299054    -0.25700
N3103       N  0.67992618  0.77994471  0.45635807     0.01300
H3104       H  0.66098602  0.71725743  0.42233792     0.07200
H3105       H  0.69186052  0.85079603  0.44133557     0.07300
N3106       N  0.81120351  0.78177142  0.44881325    -0.25700
N3107       N  0.73494881  0.82190472  0.02452160    -0.25300
N3108       N  0.72844833  0.70120539  0.44647580     0.01700
C3109       C  0.84096156  0.75208113  0.05428250     0.43100
C3110       C  0.66805839  0.72779765  0.04295914    -0.06600
N3111       N  0.73040418  0.82965389  0.46041229    -0.25300
H3112       H  0.70055389  0.83897830  0.05594674     0.07200
N3113       N  0.82899484  0.73070952  0.03488605    -0.46600
H3114       H  0.66352435  0.70317498  0.04469564     0.07200
C3115       C  0.64897411  0.76832883  0.41799253     0.42900
C3116       C  0.77563929  0.67386918  0.03329009    -0.06100
Co3117     Co  0.70652615  0.72240468  0.48359979     0.73800
N3118       N  0.66818410  0.77949020  0.04960045    -0.46300
C3119       C  0.84451453  0.76521070  0.41186921     0.43200
N3120       N  0.71391037  0.68123741  0.42843774    -0.46300
Co3121     Co  0.70773311  0.80029831  0.99125042     0.73900
C3122       C  0.71668183  0.84852017  0.44117086    -0.06600
C3123       C  0.83130067  0.78207056  0.04151475    -0.06200
N3124       N  0.75896103  0.69930038  0.44491670    -0.25700
N3125       N  0.77738003  0.83933608  0.04745277    -0.46400
H3126       H  0.84427304  0.81533895  0.42903970     0.07200
C3127       C  0.66493995  0.74097430  0.42901923    -0.06600
Cl3128     Cl  0.74812194  0.76148701  0.98453845    -0.49600
C3129       C  0.65676619  0.75260824  0.06240138     0.43000
H3130       H  0.78845268  0.66715558  0.42096428     0.07200
N3131       N  0.65901490  0.79156570  0.43691097    -0.46300
C3132       C  0.64018149  0.74772519  0.09287804     0.03500
C3133       C  0.64323033  0.71843934  0.10715286    -0.12700
C3134       C  0.62343770  0.70905251  0.13147672     0.01000
C3135       C  0.60993878  0.73216798  0.14880252    -0.11200
C3136       C  0.60039622  0.75881380  0.13273438     0.03500
C3137       C  0.61702109  0.76760973  0.10485015    -0.10600
H3138       H  0.65695401  0.70085684  0.09636617     0.09100
H3139       H  0.59721627  0.72478512  0.16973292     0.06600
H3140       H  0.61004989  0.78747365  0.09127291     0.06400
C3141       C  0.85376168  0.74316456  0.08546478     0.03500
C3142       C  0.87310746  0.76246334  0.10424999    -0.12700
C3143       C  0.88448331  0.75053841  0.13303749     0.01000
C3144       C  0.87344147  0.72129206  0.14344409    -0.11200
C3145       C  0.86311842  0.70035918  0.12158843     0.03500
C3146       C  0.84982130  0.71181646  0.09447809    -0.10600
H3147       H  0.88122956  0.78484101  0.09544284     0.09100
H3148       H  0.88235358  0.71166552  0.16496053     0.06600
H3149       H  0.84036088  0.69516929  0.07835996     0.06400
C3150       C  0.58002496  0.75720486  0.36239493     0.03500
C3151       C  0.60834813  0.76991887  0.37425039    -0.12700
C3152       C  0.61658359  0.76437610  0.40594898     0.01000
C3153       C  0.59649636  0.74577468  0.42475583    -0.11200
C3154       C  0.57099479  0.73016846  0.41214754     0.03500
C3155       C  0.56193965  0.73712088  0.38178718    -0.10600
H3156       H  0.62441032  0.78246844  0.35867903     0.09100
H3157       H  0.60353308  0.73947605  0.44815627     0.06600
H3158       H  0.54181768  0.72494631  0.37255746     0.06400
C3159       C  0.91864345  0.74900601  0.36616188     0.03500
C3160       C  0.89176139  0.76509201  0.37523486    -0.12700
C3161       C  0.87736686  0.75841432  0.40453019     0.01000
C3162       C  0.89112133  0.73736381  0.42497481    -0.11200
C3163       C  0.91573675  0.71967880  0.41512967     0.03500
C3164       C  0.92975000  0.72571189  0.38606262    -0.10600
H3165       H  0.88101147  0.78074698  0.35894055     0.09100
H3166       H  0.87997291  0.73165389  0.44729071     0.06600
H3167       H  0.94891324  0.71158234  0.37877878     0.06400
N3168       N  0.99846356  0.61700770  0.46428758    -0.36300
N3169       N  0.53745913  0.60113428  0.03329766    -0.56800
N3170       N  0.99502730  0.59568907  0.07983609    -0.36300
N3171       N  0.94359320  0.58901385  0.03429508    -0.56800
C3172       C  0.51636170  0.59949851  0.47293799     0.27300
C3173       C  0.97483475  0.59740474  0.47278896     0.27300
C3174       C  0.51393366  0.60107557  0.09990842     0.27300
C3175       C  0.96944615  0.59568152  0.09898439     0.27300
C3176       C  0.55834251  0.61181619  0.50758357     0.35900
C3177       C  0.55579742  0.60693522  0.05772400     0.35900
C3178       C  0.93199503  0.59865279  0.50904331     0.35900
C3179       C  0.92574819  0.59179045  0.06002161     0.35900
C3180       C  0.51036969  0.56946124  0.48269193    -0.21500
C3181       C  0.98631617  0.56924918  0.48228009    -0.21500
C3182       C  0.50441508  0.60437179  0.13067834    -0.21500
C3183       C  0.97877905  0.60015757  0.12940312    -0.21500
C3184       C  0.58611421  0.62578870  0.51596430    -0.22600
C3185       C  0.58469919  0.61844284  0.04685807    -0.22600
C3186       C  0.90197197  0.60420987  0.51870711    -0.22600
C3187       C  0.89515500  0.59726841  0.05130028    -0.22600
C3188       C  0.54388902  0.61614305  0.47867963    -0.17900
C3189       C  0.94472590  0.60720895  0.47981646    -0.17900
C3190       C  0.93778422  0.59827585  0.08991721    -0.17900
C3191       C  0.54468575  0.60956623  0.08894077    -0.17900
H3192       H  0.52704963  0.55365321  0.49123999     0.15000
H3193       H  0.97315108  0.54958986  0.49189173     0.15000
H3194       H  0.51873026  0.61124437  0.15005408     0.15000
H3195       H  0.96383402  0.60269442  0.14971603     0.15000
H3196       H  0.60247464  0.63862825  0.50098299     0.13300
H3197       H  0.60399110  0.62677216  0.06057727     0.13200
H3198       H  0.88289742  0.61177875  0.50452811     0.13300
H3199       H  0.87557384  0.60242767  0.06627573     0.13200
H3200       H  0.99693403  0.64042884  0.45875371     0.26500
H3201       H  0.99472520  0.59509586  0.05568284     0.26500
C3202       C  0.57292076  0.67163867  0.22544156     0.42800
N3203       N  0.53358281  0.69888009  0.24015628     0.01700
C3204       C  0.92950227  0.78897793  0.15678782    -0.06200
H3205       H  0.56034321  0.81645085  0.15114613     0.07200
C3206       C  0.55184344  0.84247560  0.25827985    -0.06500
Co3207     Co  0.99459634  0.72610355  0.18978561     0.74200
N3208       N  0.52548824  0.78232320  0.16636186    -0.25700
Co3209     Co  0.99161456  0.80744537  0.19358420     0.74100
C3210       C  0.56748609  0.85484006  0.22995087     0.42900
N3211       N  0.53449108  0.77418884  0.29638308     0.01300
N3212       N  0.52659518  0.82803610  0.21786252     0.01400
N3213       N  0.93439858  0.73739753  0.15659839    -0.46600
H3214       H  0.55970303  0.67807836  0.17364297     0.07200
N3215       N  0.52423624  0.75206261  0.16349815     0.01700
N3216       N  0.95829308  0.82876260  0.22353051     0.01400
C3217       C  0.92171422  0.85642328  0.24431882     0.43100
N3218       N  0.53627870  0.74412645  0.29283659    -0.25200
C3219       C  0.94062750  0.67690898  0.21134620    -0.06100
N3220       N  0.55731262  0.68296072  0.25016553    -0.46300
N3221       N  0.93651981  0.84939324  0.21695139    -0.46500
C3222       C  0.92929183  0.66559332  0.24239122     0.42800
N3223       N  0.95787784  0.75063216  0.17098557     0.01700
N3224       N  0.96898674  0.74267829  0.29837295    -0.25200
N3225       N  0.53150776  0.69924880  0.20952498    -0.25700
N3226       N  0.96640927  0.77270711  0.30097629     0.01300
H3227       H  0.94726803  0.70378201  0.32259288     0.07200
H3228       H  0.93454018  0.83947857  0.29334445     0.07300
N3229       N  0.95598154  0.78106523  0.17161098    -0.25700
N3230       N  0.52758934  0.82569418  0.24857449    -0.25300
N3231       N  0.96690519  0.69907657  0.24764856     0.01700
C3232       C  0.56678590  0.76554956  0.13837001     0.43100
C3233       C  0.55837794  0.73353461  0.31170285    -0.06600
N3234       N  0.96000510  0.82346648  0.25382797    -0.25300
H3235       H  0.55881937  0.84427977  0.28232573     0.07200
N3236       N  0.54755758  0.74168624  0.14689841    -0.46600
H3237       H  0.56243535  0.70935907  0.31629539     0.07200
C3238       C  0.93373537  0.75310567  0.33498244     0.42900
C3239       C  0.55534741  0.68239273  0.19797891    -0.06100
Co3240     Co  0.00217828  0.72311710  0.26955417     0.73800
N3241       N  0.55353304  0.78446551  0.31841088    -0.46300
C3242       C  0.91513361  0.75953790  0.14680813     0.43200
N3243       N  0.94688833  0.68095743  0.26295203    -0.46300
Co3244     Co  0.99719372  0.80156623  0.27488740     0.73900
C3245       C  0.93723444  0.83819916  0.26828266    -0.06600
C3246       C  0.55192361  0.79289416  0.15154041    -0.06200
N3247       N  0.96379169  0.69794455  0.21725573    -0.25700
N3248       N  0.55044247  0.84474939  0.20569591    -0.46400
H3249       H  0.92127866  0.81217856  0.15370075     0.07200
C3250       C  0.94918348  0.72845920  0.31852063    -0.06600
Cl3251     Cl  0.99649291  0.76462535  0.23192791    -0.49600
C3252       C  0.57018728  0.76027380  0.32910481     0.43000
H3253       H  0.93323577  0.66991392  0.18847013     0.07200
N3254       N  0.94602534  0.78007650  0.32317200    -0.46300
C3255       C  0.75116977  0.86060850  0.09792985     0.03500
C3256       C  0.72644352  0.84745133  0.11609862    -0.12700
C3257       C  0.70890673  0.86627322  0.13514769     0.01000
C3258       C  0.72399194  0.89139862  0.14849060    -0.11200
C3259       C  0.75042305  0.90522036  0.13373165     0.03500
C3260       C  0.76380616  0.88997683  0.10734747    -0.10600
H3261       H  0.71503715  0.82632707  0.10851429     0.09100
H3262       H  0.71091791  0.90428522  0.16549089     0.06600
H3263       H  0.78104441  0.90207672  0.09271984     0.06400
C3264       C  0.74593260  0.62839628  0.06306238     0.03500
C3265       C  0.76376954  0.62013156  0.08935964    -0.12700
C3266       C  0.76089469  0.58979401  0.10199234     0.01000
C3267       C  0.74272052  0.56792287  0.08622486    -0.11200
C3268       C  0.71977769  0.57797239  0.06623260     0.03500
C3269       C  0.72302114  0.60741982  0.05262894    -0.10600
H3270       H  0.77763913  0.63751712  0.10105364     0.09100
H3271       H  0.74017959  0.54479935  0.09622050     0.06600
H3272       H  0.70615684  0.61465631  0.03563556     0.06400
C3273       C  0.72645033  0.63228600  0.40359754     0.03500
C3274       C  0.70494378  0.61586241  0.42324062    -0.12700
C3275       C  0.69164439  0.58751363  0.41472538     0.01000
C3276       C  0.70043712  0.57487232  0.38596381    -0.11200
C3277       C  0.72168202  0.59032143  0.36532018     0.03500
C3278       C  0.73508001  0.61916606  0.37454973    -0.10600
H3279       H  0.69819992  0.62543132  0.44544477     0.09100
H3280       H  0.69006176  0.55300725  0.37927443     0.06600
H3281       H  0.75069261  0.63192614  0.35869566     0.06400
C3282       C  0.71527473  0.91018794  0.35104562     0.03500
C3283       C  0.73849979  0.89424310  0.36838893    -0.12700
C3284       C  0.72962733  0.86654610  0.38542974     0.01000
C3285       C  0.69966704  0.85416570  0.37938425    -0.11200
C3286       C  0.67629801  0.87549053  0.37618526     0.03500
C3287       C  0.68391896  0.90207420  0.35835035    -0.10600
H3288       H  0.76187438  0.90395846  0.37000981     0.09100
H3289       H  0.69280891  0.83203672  0.38988337     0.06600
H3290       H  0.66577764  0.91816794  0.35355571     0.06400
N3291       N  0.59805469  0.53195111  0.03052941    -0.36300
N3292       N  0.57904816  0.95990467  0.08413622    -0.56800
N3293       N  0.58434591  0.91486736  0.03348298    -0.36300
N3294       N  0.57791780  0.95954578  0.48047814    -0.56800
C3295       C  0.58383504  0.52202658  0.05724609     0.27300
C3296       C  0.57785009  0.52086002  0.50497879     0.27300
C3297       C  0.58284622  0.89638337  0.05936341     0.27300
C3298       C  0.58572685  0.89526583  0.50523752     0.27300
C3299       C  0.59499489  0.48823697  0.10055928     0.35900
C3300       C  0.58704468  0.93559652  0.10179152     0.35900
C3301       C  0.58651985  0.48665341  0.46304653     0.35900
C3302       C  0.58613158  0.93569378  0.46273821     0.35900
C3303       C  0.55429384  0.51017078  0.05132325    -0.21500
C3304       C  0.55039219  0.50689354  0.51644465    -0.21500
C3305       C  0.58258250  0.86575030  0.05044466    -0.21500
C3306       C  0.58609865  0.86455157  0.51446619    -0.21500
C3307       C  0.60803670  0.48045353  0.12869347    -0.22600
C3308       C  0.59993356  0.94601507  0.12945331    -0.22600
C3309       C  0.59710847  0.47869790  0.43417600    -0.22600
C3310       C  0.59613506  0.94658596  0.43358795    -0.22600
C3311       C  0.60058766  0.51632323  0.08440169    -0.17900
C3312       C  0.59091767  0.51613569  0.47551983    -0.17900
C3313       C  0.59222519  0.90565875  0.47429093    -0.17900
C3314       C  0.59099234  0.90560498  0.08987471    -0.17900
H3315       H  0.53808783  0.49911367  0.06783474     0.15000
H3316       H  0.53258765  0.49514540  0.50314043     0.15000
H3317       H  0.58350507  0.84566955  0.06572248     0.15000
H3318       H  0.58873592  0.84479527  0.49964526     0.15000
H3319       H  0.62001050  0.49573915  0.14451314     0.13300
H3320       H  0.61061034  0.93232988  0.14744609     0.13200
H3321       H  0.60780050  0.49428679  0.41732326     0.13300
H3322       H  0.60652185  0.93353055  0.41506915     0.13200
H3323       H  0.62133685  0.53916270  0.02760375     0.26500
H3324       H  0.58818511  0.93865283  0.03312434     0.26500
C3325       C  0.60090022  0.86499572  0.22893444     0.03500
C3326       C  0.61281937  0.89179827  0.21235422    -0.12700
C3327       C  0.64226518  0.90514508  0.22101480     0.01000
C3328       C  0.65733327  0.89164790  0.24666053    -0.11200
C3329       C  0.63903215  0.87374007  0.26742456     0.03500
C3330       C  0.61879826  0.85321278  0.25332978    -0.10600
H3331       H  0.59787522  0.90435649  0.19688541     0.09100
H3332       H  0.67748467  0.90348963  0.25626490     0.06600
H3333       H  0.60999921  0.83383878  0.26740035     0.06400
C3334       C  0.86949134  0.59850651  0.25780707     0.03500
C3335       C  0.88510818  0.62326695  0.24109201    -0.12700
C3336       C  0.91291240  0.63649602  0.25332382     0.01000
C3337       C  0.92468081  0.62395218  0.28104624    -0.11200
C3338       C  0.90894941  0.60086643  0.29791993     0.03500
C3339       C  0.88199167  0.58778162  0.28602048    -0.10600
H3340       H  0.87513349  0.63284631  0.22014577     0.09100
H3341       H  0.94645955  0.63261068  0.29041841     0.06600
H3342       H  0.87066260  0.56910190  0.29927731     0.06400
C3343       C  0.60417694  0.65684480  0.22985624     0.03500
C3344       C  0.61780181  0.66282760  0.25897248    -0.12700
C3345       C  0.64017255  0.64344199  0.27057883     0.01000
C3346       C  0.65946689  0.62995538  0.24889488    -0.11200
C3347       C  0.64531351  0.61786718  0.22233713     0.03500
C3348       C  0.61713363  0.63219781  0.21200300    -0.10600
H3349       H  0.60648814  0.67745029  0.27570106     0.09100
H3350       H  0.67981921  0.61878289  0.25805041     0.06600
H3351       H  0.60386926  0.62217334  0.19331783     0.06400
C3352       C  0.86659388  0.92528571  0.25724051     0.03500
C3353       C  0.87981914  0.89932432  0.24204812    -0.12700
C3354       C  0.90858662  0.88725018  0.25267886     0.01000
C3355       C  0.92348220  0.90223838  0.27740481    -0.11200
C3356       C  0.90952587  0.92594983  0.29332483     0.03500
C3357       C  0.88197431  0.93792479  0.28285666    -0.10600
H3358       H  0.86726293  0.88790991  0.22364304     0.09100
H3359       H  0.94545919  0.89411301  0.28603064     0.06600
H3360       H  0.87230777  0.95709842  0.29533367     0.06400
N3361       N  0.99498726  0.00713367  0.40969757    -0.36300
N3362       N  0.04186738  0.55488044  0.39102039    -0.56800
N3363       N  0.57872429  0.00350871  0.36884466    -0.36300
N3364       N  0.03260516  0.95540627  0.39094291    -0.56800
C3365       C  0.97860134  0.53417178  0.41470663     0.27300
C3366       C  0.97579911  0.98311255  0.41759498     0.27300
C3367       C  0.59706877  0.52884097  0.36566261     0.27300
C3368       C  0.59299435  0.97688667  0.36221870     0.27300
C3369       C  0.01613575  0.57234422  0.38959931     0.35900
C3370       C  0.56102626  0.57187851  0.37593283     0.35900
C3371       C  0.00544358  0.93976694  0.39658530     0.35900
C3372       C  0.55077293  0.93836380  0.37666872     0.35900
C3373       C  0.94950511  0.52650441  0.42757806    -0.21500
C3374       C  0.94904124  0.99398032  0.43150207    -0.21500
C3375       C  0.62624327  0.51786185  0.35826124    -0.21500
C3376       C  0.62416342  0.98312921  0.35517045    -0.21500
C3377       C  0.02326937  0.59970508  0.37350745    -0.22600
C3378       C  0.54984225  0.60000453  0.36611921    -0.22600
C3379       C  0.00656081  0.91065220  0.38374055    -0.22600
C3380       C  0.53624861  0.90950279  0.37567805    -0.22600
C3381       C  0.98542277  0.56207719  0.39816780    -0.17900
C3382       C  0.97716625  0.95439832  0.40300187    -0.17900
C3383       C  0.57864614  0.94715186  0.36074702    -0.17900
C3384       C  0.58990397  0.56043100  0.36558871    -0.17900
H3385       H  0.93050607  0.54201694  0.43140410     0.15000
H3386       H  0.92809528  0.98065808  0.43759788     0.15000
H3387       H  0.64739568  0.53131119  0.35374992     0.15000
H3388       H  0.64158767  0.96676835  0.34891304     0.15000
H3389       H  0.00836228  0.61807270  0.36675181     0.13300
H3390       H  0.56169599  0.61774793  0.35202270     0.13200
H3391       H  0.98765429  0.89373470  0.38250027     0.13300
H3392       H  0.54390146  0.88930979  0.36357569     0.13200
H3393       H  0.01380117  0.00607246  0.39465742     0.26500
H3394       H  0.55505056  0.00596280  0.37250586     0.26500
C3395       C  0.65004941  0.93864677  0.21674034     0.42800
N3396       N  0.67485645  0.97883444  0.23428485     0.01700
C3397       C  0.78942001  0.56644735  0.15054774    -0.06200
H3398       H  0.80595301  0.94439091  0.16037048     0.07200
C3399       C  0.81572862  0.95219708  0.27415896    -0.06500
Co3400     Co  0.71535223  0.51265638  0.18496098     0.74200
N3401       N  0.77129290  0.97792243  0.17236425    -0.25700
Co3402     Co  0.79503168  0.51135501  0.20011806     0.74100
C3403       C  0.83584123  0.93900208  0.24991379     0.42900
N3404       N  0.74221346  0.97437411  0.30069801     0.01300
N3405       N  0.80912756  0.97657567  0.23077508     0.01400
N3406       N  0.73756426  0.56962757  0.14928795    -0.46600
H3407       H  0.67036819  0.94747560  0.16724971     0.07200
N3408       N  0.74144544  0.97981863  0.16588938     0.01700
N3409       N  0.81342629  0.54538796  0.22949304     0.01400
C3410       C  0.83919658  0.58393147  0.24891623     0.43100
N3411       N  0.71234305  0.97517253  0.29377592    -0.25200
C3412       C  0.67185374  0.57110816  0.19183137    -0.06100
N3413       N  0.65577719  0.95568861  0.24231042    -0.46300
N3414       N  0.83492205  0.56730530  0.22269451    -0.46500
C3415       C  0.65355744  0.58467914  0.21739028     0.42800
N3416       N  0.74580130  0.54742010  0.16848935     0.01700
N3417       N  0.71683806  0.54402687  0.29427364    -0.25200
N3418       N  0.68234362  0.97884399  0.20437472    -0.25700
N3419       N  0.74684857  0.54432010  0.30068535     0.01300
H3420       H  0.67769551  0.56612554  0.31570026     0.07200
H3421       H  0.81596783  0.57493226  0.29705768     0.07300
N3422       N  0.77622954  0.54540896  0.17064860    -0.25700
N3423       N  0.80079684  0.97544884  0.26054644    -0.25300
N3424       N  0.67878144  0.54471912  0.23435110     0.01700
C3425       C  0.75607083  0.93858004  0.14159396     0.43100
C3426       C  0.69733844  0.95219249  0.30960562    -0.06600
N3427       N  0.80432785  0.54563644  0.25904287    -0.25300
H3428       H  0.81496352  0.94687452  0.29888897     0.07200
N3429       N  0.73172823  0.95699856  0.14799332    -0.46600
H3430       H  0.67256911  0.94738028  0.30863894     0.07200
C3431       C  0.72711283  0.57659517  0.33361861     0.42900
C3432       C  0.66809237  0.95411961  0.19134357    -0.06100
Co3433     Co  0.69727957  0.51090818  0.26398957     0.73800
N3434       N  0.74846759  0.95198282  0.32130759    -0.46300
C3435       C  0.76345932  0.58267201  0.13579010     0.43200
N3436       N  0.65955285  0.56654842  0.24267724    -0.46300
Co3437     Co  0.77277321  0.00893493  0.28163815     0.73900
C3438       C  0.81809540  0.56971447  0.27255749    -0.06600
C3439       C  0.78247712  0.95256804  0.15837993    -0.06200
N3440       N  0.68613647  0.54633386  0.20443113    -0.25700
N3441       N  0.83054101  0.95595715  0.22374069    -0.46400
H3442       H  0.81412910  0.56921768  0.14568350     0.07200
C3443       C  0.70261295  0.56347959  0.31373753    -0.06600
Cl3444     Cl  0.74580440  0.51138276  0.23243527    -0.49600
C3445       C  0.72109006  0.93687697  0.32836822     0.43000
H3446       H  0.67387063  0.57874046  0.16773745     0.07200
N3447       N  0.75372199  0.56276709  0.32439151    -0.46300
C3448       C  0.92316733  0.93681902  0.32237052    -0.05100
C3449       C  0.91324512  0.92349615  0.35108445    -0.32500
C3450       C  0.92922740  0.93034291  0.37849192     0.36700
C3451       C  0.95498299  0.95097779  0.37707116    -0.05500
C3452       C  0.96369250  0.96525754  0.34841487    -0.32400
C3453       C  0.94811757  0.95816401  0.32120302     0.36600
H3454       H  0.89406879  0.90673710  0.35191634     0.17000
O3455       O  0.92032607  0.91602620  0.40607263    -0.59900
H3456       H  0.98412667  0.98045587  0.34685316     0.17000
O3457       O  0.95903267  0.97012065  0.29318419    -0.60000
H3458       H  0.95087178  0.99124448  0.29181603     0.44000
H3459       H  0.93411283  0.89814238  0.40822694     0.43900
C3460       C  0.60731276  0.57982884  0.34218714    -0.05100
C3461       C  0.59780076  0.57649242  0.31159087    -0.32500
C3462       C  0.60700768  0.59784480  0.28884678     0.36700
C3463       C  0.62875017  0.62194549  0.29566171    -0.05500
C3464       C  0.63947825  0.62460953  0.32612811    -0.32400
C3465       C  0.62787747  0.60428187  0.34965369     0.36600
H3466       H  0.58101196  0.55843018  0.30578014     0.17000
O3467       O  0.59382383  0.59502384  0.26018139    -0.59900
H3468       H  0.65584710  0.64300313  0.33188318     0.17000
O3469       O  0.63601257  0.60890959  0.37979903    -0.60000
H3470       H  0.62724779  0.62907141  0.38524290     0.44000
H3471       H  0.57289021  0.60400617  0.26230650     0.43900
C3472       C  0.96005959  0.57216738  0.37720735    -0.05100
C3473       C  0.94863996  0.55044830  0.35591746    -0.32500
C3474       C  0.92971276  0.55901174  0.33145593     0.36700
C3475       C  0.92204980  0.59001680  0.32758922    -0.05500
C3476       C  0.93109380  0.61151674  0.35021396    -0.32400
C3477       C  0.95026671  0.60278841  0.37496019     0.36600
H3478       H  0.95604296  0.52689661  0.35711583     0.17000
O3479       O  0.92170591  0.53757152  0.30960216    -0.59900
H3480       H  0.92472034  0.63544643  0.34763459     0.17000
O3481       O  0.96055464  0.62413222  0.39608292    -0.60000
H3482       H  0.96517219  0.64374318  0.38444891     0.44000
H3483       H  0.90445927  0.52495201  0.31934140     0.43900
C3484       C  0.62313392  0.89151046  0.29232962    -0.05100
C3485       C  0.60729639  0.91858234  0.28421945    -0.32500
C3486       C  0.59218031  0.93581716  0.30628207     0.36700
C3487       C  0.59185315  0.92619918  0.33743814    -0.05500
C3488       C  0.60405714  0.89751858  0.34541982    -0.32400
C3489       C  0.61926343  0.87980678  0.32280640     0.36600
H3490       H  0.60537041  0.92659344  0.26059880     0.17000
O3491       O  0.57670139  0.96167226  0.29703607    -0.59900
H3492       H  0.60133508  0.88932376  0.36900685     0.17000
O3493       O  0.63009529  0.85124926  0.33035087    -0.60000
H3494       H  0.61248910  0.83665573  0.32635829     0.44000
H3495       H  0.59310581  0.97794773  0.29353412     0.43900
C3496       C  0.61625215  0.88912693  0.45595333    -0.05100
C3497       C  0.60827833  0.86571591  0.43514297    -0.32500
C3498       C  0.62858975  0.85908915  0.41001827     0.36700
C3499       C  0.65478101  0.87871065  0.40352640    -0.05500
C3500       C  0.66363972  0.90020261  0.42607403    -0.32400
C3501       C  0.64597807  0.90351992  0.45321080     0.36600
H3502       H  0.58594721  0.85364074  0.43753158     0.17000
O3503       O  0.62200035  0.83472906  0.39108688    -0.59900
H3504       H  0.68499392  0.91387872  0.42300241     0.17000
O3505       O  0.65565298  0.92459300  0.47473326    -0.60000
H3506       H  0.66271415  0.91210525  0.49273103     0.44000
H3507       H  0.59978336  0.83622982  0.38536340     0.43900
C3508       C  0.66758527  0.57123627  0.43511091    -0.05100
C3509       C  0.67155264  0.54016381  0.44311687    -0.32500
C3510       C  0.64794511  0.52299234  0.45879198     0.36700
C3511       C  0.61835559  0.53578937  0.46412491    -0.05500
C3512       C  0.61519727  0.56746992  0.45847401    -0.32400
C3513       C  0.63999952  0.58547985  0.44542952     0.36600
H3514       H  0.69317640  0.52913722  0.43722316     0.17000
O3515       O  0.65387380  0.49340789  0.46818880    -0.59900
H3516       H  0.59330276  0.57812744  0.46368543     0.17000
O3517       O  0.63638573  0.61662646  0.44169614    -0.60000
H3518       H  0.64243521  0.62563515  0.46187100     0.44000
H3519       H  0.65992978  0.49502922  0.49031544     0.43900
C3520       C  0.68882485  0.56222063  0.06913086    -0.05100
C3521       C  0.68629635  0.52998406  0.06702292    -0.32500
C3522       C  0.65840172  0.51423454  0.07500672     0.36700
C3523       C  0.63226720  0.53077128  0.08518416    -0.06400
C3524       C  0.63488766  0.56283156  0.08733535    -0.32400
C3525       C  0.66291009  0.57852874  0.08017142     0.36600
H3526       H  0.70611864  0.51697013  0.05931929     0.17000
O3527       O  0.65646594  0.48288625  0.07122360    -0.59900
H3528       H  0.61459915  0.57573956  0.09324066     0.17000
O3529       O  0.66482215  0.60977235  0.08465018    -0.60000
H3530       H  0.67411463  0.61217784  0.10551593     0.44000
H3531       H  0.64815069  0.47994147  0.05001212     0.43900
C3532       C  0.67757045  0.87300811  0.12336005    -0.05100
C3533       C  0.65004204  0.86254510  0.13876145    -0.32500
C3534       C  0.62086101  0.87161430  0.12776665     0.36700
C3535       C  0.61947690  0.89072193  0.10097325    -0.05500
C3536       C  0.64692136  0.90030932  0.08547601    -0.32400
C3537       C  0.67561075  0.89200589  0.09640830     0.36600
H3538       H  0.65124137  0.84812436  0.15954139     0.17000
O3539       O  0.59418915  0.86173398  0.14320830    -0.59900
H3540       H  0.64612639  0.91574841  0.06535402     0.17000
O3541       O  0.70180366  0.90457164  0.08188504    -0.60000
H3542       H  0.70165083  0.89686502  0.06025071     0.44000
H3543       H  0.58379483  0.88053490  0.15037507     0.43900
C3544       C  0.93401030  0.63631833  0.46547878    -0.05100
C3545       C  0.94576183  0.66475475  0.47623413    -0.32500
C3546       C  0.94038661  0.69214149  0.45974110     0.36700
C3547       C  0.92234755  0.69130473  0.43278059    -0.05500
C3548       C  0.90830956  0.66331383  0.42368393    -0.32400
C3549       C  0.91368966  0.63591448  0.44022539     0.36600
H3550       H  0.96050885  0.66539620  0.49650279     0.17000
O3551       O  0.95311252  0.71947778  0.46982841    -0.59900
H3552       H  0.89348718  0.66270441  0.40347835     0.17000
O3553       O  0.90076010  0.60861745  0.43029070    -0.60000
H3554       H  0.88091141  0.60595427  0.44226434     0.44000
H3555       H  0.97393970  0.72128442  0.45952817     0.43900
C3556       C  0.54970097  0.64563781  0.46146115    -0.05100
C3557       C  0.56188102  0.64519474  0.43112290    -0.32500
C3558       C  0.56709216  0.67269034  0.41418695     0.36700
C3559       C  0.55996485  0.70120575  0.42766867    -0.05500
C3560       C  0.54745854  0.70163532  0.45800346    -0.32400
C3561       C  0.54205511  0.67405218  0.47482841     0.36600
H3562       H  0.56828438  0.62350562  0.42106274     0.17000
O3563       O  0.58051251  0.67159108  0.38499840    -0.59900
H3564       H  0.54258952  0.72342007  0.46885705     0.17000
O3565       O  0.53004456  0.67506579  0.50458963    -0.60000
H3566       H  0.50712090  0.67473692  0.50220413     0.44000
H3567       H  0.60261410  0.67807667  0.38770909     0.43900
C3568       C  0.92112015  0.62327933  0.10571525    -0.05100
C3569       C  0.93031180  0.65310151  0.09597738    -0.32500
C3570       C  0.91159171  0.67791397  0.10173906     0.36700
C3571       C  0.88292418  0.67333068  0.11783677    -0.05500
C3572       C  0.87459248  0.64388674  0.12996336    -0.32400
C3573       C  0.89368227  0.61864812  0.12383243     0.36600
H3574       H  0.95120008  0.65684441  0.08170023     0.17000
O3575       O  0.92035146  0.70639155  0.08951340    -0.59900
H3576       H  0.85305400  0.64036200  0.14316869     0.17000
O3577       O  0.88510519  0.58970518  0.13473541    -0.60000
H3578       H  0.87075729  0.58115625  0.11899877     0.44000
H3579       H  0.94022231  0.71215716  0.09964724     0.43900
C3580       C  0.60263492  0.68219139  0.12464946    -0.05100
C3581       C  0.57537369  0.68815165  0.10817080    -0.32500
C3582       C  0.55496665  0.66449467  0.09979680     0.36700
C3583       C  0.56177477  0.63369366  0.10690275    -0.05500
C3584       C  0.58860771  0.62737026  0.12413832    -0.32400
C3585       C  0.60957455  0.65140536  0.13231680     0.36600
H3586       H  0.57047796  0.71134089  0.10034624     0.17000
O3587       O  0.52928958  0.67145902  0.08261915    -0.59900
H3588       H  0.59401442  0.60380422  0.12993804     0.17000
O3589       O  0.63770329  0.64410586  0.14500496    -0.60000
H3590       H  0.64221157  0.65941157  0.16134640     0.44000
H3591       H  0.53737610  0.67547827  0.06113763     0.43900
C3592       C  0.74558141  0.65963599  0.54703461     0.42800
N3593       N  0.73220939  0.69519351  0.51442198     0.01700
C3594       C  0.83434366  0.79028117  0.92728748    -0.06200
H3595       H  0.83430255  0.80446131  0.55209662     0.07200
C3596       C  0.72414156  0.83718604  0.55116137    -0.06500
Co3597     Co  0.78734897  0.72191675  0.97856581     0.74200
N3598       N  0.81319148  0.77562418  0.51681891    -0.25700
Co3599     Co  0.78823599  0.80373941  0.48584446     0.74100
C3600       C  0.75223613  0.84847224  0.56661466     0.42900
N3601       N  0.68329047  0.77288718  0.52499121     0.01300
N3602       N  0.76468982  0.82443327  0.52436302     0.01400
N3603       N  0.82630320  0.73936687  0.92217112    -0.46600
H3604       H  0.79758226  0.66761534  0.53463650     0.07200
N3605       N  0.81235251  0.74540244  0.51304286     0.01700
N3606       N  0.76125633  0.82829565  0.95240014     0.01400
C3607       C  0.74020600  0.85682208  0.91635273     0.43100
N3608       N  0.68353067  0.74287837  0.52061959    -0.25200
C3609       C  0.76717920  0.67468442  0.92511380    -0.06100
N3610       N  0.72096264  0.67367596  0.53412151    -0.46300
N3611       N  0.76773564  0.84453763  0.92594515    -0.46500
C3612       C  0.73687591  0.66259791  0.91358413     0.42800
N3613       N  0.80826662  0.75014920  0.94431031     0.01700
N3614       N  0.68313107  0.74796361  0.95286387    -0.25200
N3615       N  0.76290698  0.69553348  0.51259819    -0.25700
N3616       N  0.68088345  0.77801348  0.95603010     0.01300
H3617       H  0.66019599  0.71493745  0.92371145     0.07200
H3618       H  0.69207877  0.84793990  0.93984901     0.07300
N3619       N  0.81195343  0.78024039  0.94770770    -0.25700
N3620       N  0.73390741  0.82256440  0.52595914    -0.25300
N3621       N  0.72984559  0.69933323  0.94674864     0.01700
C3622       C  0.83985716  0.75157698  0.55455467     0.43100
C3623       C  0.66561913  0.72882690  0.54238201    -0.06600
N3624       N  0.73115430  0.82775197  0.95880205    -0.25300
H3625       H  0.69998061  0.83948355  0.55802567     0.07200
N3626       N  0.82769692  0.73061581  0.53487225    -0.46600
H3627       H  0.66081418  0.70422759  0.54370330     0.07200
C3628       C  0.64858956  0.76616224  0.91892716     0.42900
C3629       C  0.77353197  0.67406362  0.53251772    -0.06100
Co3630     Co  0.70794149  0.72085561  0.98372963     0.73800
N3631       N  0.66598373  0.78040724  0.54968563    -0.46300
C3632       C  0.84426174  0.76285043  0.91030723     0.43200
N3633       N  0.71542186  0.67925194  0.92873958    -0.46300
Co3634     Co  0.70654513  0.80174626  0.49221593     0.73900
C3635       C  0.71694878  0.84604154  0.93942588    -0.06600
C3636       C  0.83020754  0.78184609  0.54247020    -0.06200
N3637       N  0.76036949  0.69748515  0.94530492    -0.25700
N3638       N  0.77673765  0.83930297  0.54874869    -0.46400
H3639       H  0.84451530  0.81336859  0.92636008     0.07200
C3640       C  0.66463427  0.73873489  0.92986244    -0.06600
Cl3641     Cl  0.74688121  0.76272906  0.48509263    -0.49600
C3642       C  0.65405009  0.75347400  0.56190406     0.43000
H3643       H  0.79006452  0.66537887  0.92152318     0.07200
N3644       N  0.65950106  0.78956276  0.93708658    -0.46300
C3645       C  0.63758733  0.74840736  0.59243056     0.03500
C3646       C  0.64074035  0.71913890  0.60668195    -0.12700
C3647       C  0.62190103  0.71008820  0.63190865     0.01000
C3648       C  0.60866475  0.73338037  0.64919538    -0.11200
C3649       C  0.59875252  0.75983264  0.63303115     0.03500
C3650       C  0.61473485  0.76838296  0.60475442    -0.10600
H3651       H  0.65399193  0.70145391  0.59549139     0.09100
H3652       H  0.59643158  0.72624603  0.67049454     0.06600
H3653       H  0.60751764  0.78818576  0.59122870     0.06400
C3654       C  0.85324478  0.74199047  0.58521899     0.03500
C3655       C  0.87191902  0.76129609  0.60459537    -0.12700
C3656       C  0.88347087  0.74892299  0.63308019     0.01000
C3657       C  0.87291511  0.71929360  0.64274615    -0.11200
C3658       C  0.86388087  0.69856699  0.62014819     0.03500
C3659       C  0.85055100  0.71025311  0.59313600    -0.10600
H3660       H  0.87942109  0.78410044  0.59645047     0.09100
H3661       H  0.88179080  0.70947915  0.66419488     0.06600
H3662       H  0.84193515  0.69378665  0.57639289     0.06400
C3663       C  0.57817571  0.75885518  0.86445113     0.03500
C3664       C  0.60698302  0.77041858  0.87630772    -0.12700
C3665       C  0.61592090  0.76290717  0.90737864     0.01000
C3666       C  0.59587623  0.74380829  0.92576258    -0.11200
C3667       C  0.56947122  0.72967924  0.91323666     0.03500
C3668       C  0.56003269  0.73820270  0.88332708    -0.10600
H3669       H  0.62297728  0.78338933  0.86101337     0.09100
H3670       H  0.60325765  0.73628545  0.94868118     0.06600
H3671       H  0.53953174  0.72685180  0.87390614     0.06400
C3672       C  0.91722191  0.74426831  0.86450387     0.03500
C3673       C  0.89102340  0.76126343  0.87356153    -0.12700
C3674       C  0.87690573  0.75550902  0.90305559     0.01000
C3675       C  0.89036488  0.73451888  0.92376898    -0.11200
C3676       C  0.91371831  0.71538216  0.91372117     0.03500
C3677       C  0.92747432  0.72045629  0.88433072    -0.10600
H3678       H  0.88062019  0.77708200  0.85718443     0.09100
H3679       H  0.87942550  0.72969456  0.94637496     0.06600
H3680       H  0.94589938  0.70548413  0.87692828     0.06400
N3681       N  0.99084352  0.61377410  0.96428385    -0.36300
N3682       N  0.54262111  0.60050560  0.53309657    -0.56800
N3683       N  0.00163435  0.59789850  0.57925839    -0.36300
N3684       N  0.95029411  0.59259980  0.53373550    -0.56800
C3685       C  0.51124601  0.59930695  0.97347306     0.27300
C3686       C  0.96777835  0.59366199  0.97321800     0.27300
C3687       C  0.51767513  0.59744953  0.59894775     0.27300
C3688       C  0.97600438  0.59785501  0.59841517     0.27300
C3689       C  0.55376936  0.61042552  0.00735946     0.35900
C3690       C  0.55964674  0.60830429  0.55795508     0.35900
C3691       C  0.92502953  0.59429863  0.00960269     0.35900
C3692       C  0.93235504  0.59532355  0.55937724     0.35900
C3693       C  0.50487220  0.56942905  0.98376897    -0.21500
C3694       C  0.98005116  0.56597013  0.98295924    -0.21500
C3695       C  0.50807483  0.59623054  0.62994462    -0.21500
C3696       C  0.98539522  0.60075850  0.62899927    -0.21500
C3697       C  0.58301852  0.62136435  0.01502047    -0.22600
C3698       C  0.58727873  0.62315339  0.54781303    -0.22600
C3699       C  0.89494932  0.59942855  0.01937740    -0.22600
C3700       C  0.90190637  0.60143162  0.55055265    -0.22600
C3701       C  0.53929055  0.61527828  0.97855698    -0.17900
C3702       C  0.93742828  0.60273368  0.98016798    -0.17900
C3703       C  0.94432351  0.60093995  0.58947291    -0.17900
C3704       C  0.54805882  0.60826336  0.58920225    -0.17900
H3705       H  0.52136882  0.55320701  0.99224354     0.15000
H3706       H  0.96751361  0.54606024  0.99286099     0.15000
H3707       H  0.52231771  0.60047418  0.65010637     0.15000
H3708       H  0.97050851  0.60277663  0.64942760     0.15000
H3709       H  0.60042091  0.63202891  0.99953628     0.13300
H3710       H  0.60519138  0.63360470  0.56192532     0.13200
H3711       H  0.87566168  0.60640053  0.00516251     0.13300
H3712       H  0.88222787  0.60655652  0.56539552     0.13200
H3713       H  0.98865182  0.63706672  0.95850434     0.26500
H3714       H  0.00143889  0.59850535  0.55507205     0.26500
C3715       C  0.57368419  0.67351643  0.72601403     0.42800
N3716       N  0.53476954  0.70112846  0.74114006     0.01700
C3717       C  0.92823320  0.78735811  0.65713238    -0.06200
H3718       H  0.55826458  0.81747176  0.65113946     0.07200
C3719       C  0.55063125  0.84503092  0.75824732    -0.06500
Co3720     Co  0.99409922  0.72454384  0.68881181     0.74200
N3721       N  0.52405793  0.78325885  0.66708696    -0.25700
Co3722     Co  0.99025568  0.80599474  0.69377934     0.74100
C3723       C  0.56635781  0.85707883  0.72974825     0.42900
N3724       N  0.53349659  0.77666306  0.79757668     0.01300
N3725       N  0.52544164  0.82982341  0.71804279     0.01400
N3726       N  0.93368877  0.73587133  0.65604315    -0.46600
H3727       H  0.55865326  0.67819342  0.67465248     0.07200
N3728       N  0.52304620  0.75296357  0.66468982     0.01700
N3729       N  0.95679079  0.82675155  0.72410201     0.01400
C3730       C  0.92047349  0.85421231  0.74575938     0.43100
N3731       N  0.53606421  0.74673442  0.79364632    -0.25200
C3732       C  0.93944742  0.67501410  0.71029943    -0.06100
N3733       N  0.55879045  0.68548060  0.75088440    -0.46300
N3734       N  0.93499176  0.84757419  0.71809025    -0.46500
C3735       C  0.92852567  0.66368103  0.74160863     0.42800
N3736       N  0.95720523  0.74911911  0.67035982     0.01700
N3737       N  0.96835196  0.73927221  0.79731247    -0.25200
N3738       N  0.53179028  0.70065833  0.71062366    -0.25700
N3739       N  0.96545793  0.76922300  0.80026725     0.01300
H3740       H  0.94688431  0.69978881  0.82080739     0.07200
H3741       H  0.93382106  0.83639918  0.79435134     0.07300
N3742       N  0.95493923  0.77949805  0.67155139    -0.25700
N3743       N  0.52642728  0.82790281  0.74881153    -0.25300
N3744       N  0.96670975  0.69660600  0.74620147     0.01700
C3745       C  0.56524209  0.76643853  0.63910928     0.43100
C3746       C  0.55782282  0.73622701  0.81291127    -0.06600
N3747       N  0.95879833  0.82099613  0.75429271    -0.25300
H3748       H  0.55765021  0.84717065  0.78224893     0.07200
N3749       N  0.54634206  0.74256363  0.64817642    -0.46600
H3750       H  0.56203214  0.71205963  0.81736142     0.07200
C3751       C  0.93272749  0.74875898  0.83367019     0.42900
C3752       C  0.55522658  0.68343518  0.69887471    -0.06100
Co3753     Co  0.00164490  0.72047038  0.76840029     0.73800
N3754       N  0.55163578  0.78684486  0.82044521    -0.46300
C3755       C  0.91408339  0.75795733  0.64685062     0.43200
N3756       N  0.94670564  0.67879911  0.76172027    -0.46300
Co3757     Co  0.99617489  0.79883842  0.77479279     0.73900
C3758       C  0.93625140  0.83559076  0.76923802    -0.06600
C3759       C  0.55023277  0.79384793  0.65191463    -0.06200
N3760       N  0.96314283  0.69573450  0.71586236    -0.25700
N3761       N  0.54929283  0.84645586  0.70567662    -0.46400
H3762       H  0.91968325  0.81049204  0.65458856     0.07200
C3763       C  0.94858573  0.72452810  0.81710969    -0.06600
Cl3764     Cl  0.99564713  0.76253429  0.73141900    -0.49600
C3765       C  0.56855014  0.76274297  0.83110338     0.43000
H3766       H  0.93128468  0.66843957  0.68755836     0.07200
N3767       N  0.94473185  0.77603253  0.82231924    -0.46300
C3768       C  0.75164085  0.86005990  0.59954806     0.03500
C3769       C  0.72756037  0.84644467  0.61814364    -0.12700
C3770       C  0.70919953  0.86541823  0.63619019     0.01000
C3771       C  0.72355182  0.89119998  0.64918705    -0.11200
C3772       C  0.75008497  0.90503873  0.63459838     0.03500
C3773       C  0.76381013  0.88967562  0.60856406    -0.10600
H3774       H  0.71674318  0.82492633  0.61079855     0.09100
H3775       H  0.70998003  0.90431440  0.66558871     0.06600
H3776       H  0.78075328  0.90193035  0.59371728     0.06400
C3777       C  0.74328018  0.62852429  0.56199420     0.03500
C3778       C  0.76224788  0.61977706  0.58727305    -0.12700
C3779       C  0.75931738  0.58952676  0.60006183     0.01000
C3780       C  0.73989882  0.56797409  0.58515311    -0.11200
C3781       C  0.71643745  0.57833334  0.56588011     0.03500
C3782       C  0.71939701  0.60801932  0.55262883    -0.10600
H3783       H  0.77708363  0.63685828  0.59826768     0.09100
H3784       H  0.73732278  0.54487770  0.59520633     0.06600
H3785       H  0.70197808  0.61563393  0.53639645     0.06400
C3786       C  0.72818408  0.63037357  0.90385909     0.03500
C3787       C  0.70698194  0.61380251  0.92363907    -0.12700
C3788       C  0.69321618  0.58576025  0.91489219     0.01000
C3789       C  0.70164885  0.57326658  0.88600250    -0.11200
C3790       C  0.72246733  0.58893316  0.86513871     0.03500
C3791       C  0.73614681  0.61763205  0.87444637    -0.10600
H3792       H  0.70064618  0.62315119  0.94606476     0.09100
H3793       H  0.69145040  0.55132783  0.87944307     0.06600
H3794       H  0.75145678  0.63055598  0.85843282     0.06400
C3795       C  0.71545052  0.91181159  0.85182729     0.03500
C3796       C  0.73877569  0.89432260  0.86757190    -0.12700
C3797       C  0.72935509  0.86644425  0.88416976     0.01000
C3798       C  0.69870206  0.85567457  0.87867014    -0.11200
C3799       C  0.67632593  0.87822473  0.87806847     0.03500
C3800       C  0.68428531  0.90531286  0.86116272    -0.10600
H3801       H  0.76269596  0.90275916  0.86805196     0.09100
H3802       H  0.69129609  0.83323000  0.88804618     0.06600
H3803       H  0.66683901  0.92248957  0.85797432     0.06400
N3804       N  0.59532225  0.53074282  0.52847351    -0.36300
N3805       N  0.58035057  0.95743814  0.58257719    -0.56800
N3806       N  0.58407825  0.91334176  0.53079611    -0.36300
N3807       N  0.58003061  0.95971828  0.98184434    -0.56800
C3808       C  0.58109483  0.51990152  0.55484448     0.27300
C3809       C  0.57960637  0.52277560  0.00743688     0.27300
C3810       C  0.58447675  0.89424695  0.55619606     0.27300
C3811       C  0.58627343  0.89612973  0.00844522     0.27300
C3812       C  0.59262767  0.48623719  0.59832608     0.35900
C3813       C  0.58899762  0.93278752  0.59939452     0.35900
C3814       C  0.58617312  0.48797315  0.96548533     0.35900
C3815       C  0.58825198  0.93534161  0.96489237     0.35900
C3816       C  0.55213317  0.50696813  0.54830245    -0.21500
C3817       C  0.55187236  0.51003687  0.01951036    -0.21500
C3818       C  0.58510201  0.86387759  0.54650780    -0.21500
C3819       C  0.58501412  0.86561842  0.01842225    -0.21500
C3820       C  0.60620244  0.47851979  0.62624809    -0.22600
C3821       C  0.60235571  0.94263898  0.62706093    -0.22600
C3822       C  0.59536443  0.47983991  0.93617929    -0.22600
C3823       C  0.59846157  0.94532174  0.93546130    -0.22600
C3824       C  0.59779355  0.51439777  0.58209519    -0.17900
C3825       C  0.59166195  0.51743415  0.97769243    -0.17900
C3826       C  0.59405187  0.90566934  0.97748310    -0.17900
C3827       C  0.59279024  0.90302821  0.58680192    -0.17900
H3828       H  0.53602440  0.49519567  0.56441466     0.15000
H3829       H  0.53342548  0.49877708  0.00665532     0.15000
H3830       H  0.58742358  0.84352332  0.56117458     0.15000
H3831       H  0.58740048  0.84541990  0.00417176     0.15000
H3832       H  0.61816395  0.49393439  0.64194959     0.13300
H3833       H  0.61354773  0.92865701  0.64448073     0.13200
H3834       H  0.60530643  0.49538252  0.91887472     0.13300
H3835       H  0.60855344  0.93167097  0.91723039     0.13200
H3836       H  0.61830336  0.53901666  0.52597503     0.26500
H3837       H  0.58679296  0.93723194  0.53091878     0.26500
C3838       C  0.60004536  0.86681886  0.72856233     0.03500
C3839       C  0.61256656  0.89308350  0.71141972    -0.12700
C3840       C  0.64271708  0.90555999  0.71915020     0.01000
C3841       C  0.65820720  0.89144592  0.74418755    -0.11200
C3842       C  0.64002343  0.87428005  0.76575641     0.03500
C3843       C  0.61801027  0.85474739  0.75278925    -0.10600
H3844       H  0.59774614  0.90587745  0.69600389     0.09100
H3845       H  0.67906922  0.90269291  0.75301793     0.06600
H3846       H  0.60871200  0.83604619  0.76747166     0.06400
C3847       C  0.86513046  0.60031075  0.75992570     0.03500
C3848       C  0.88238234  0.62296188  0.74171912    -0.12700
C3849       C  0.91020745  0.63616110  0.75394730     0.01000
C3850       C  0.92054916  0.62515962  0.78297198    -0.11200
C3851       C  0.90311044  0.60458488  0.80135445     0.03500
C3852       C  0.87572263  0.59221283  0.78984459    -0.10600
H3853       H  0.87384939  0.63075846  0.71939992     0.09100
H3854       H  0.94276018  0.63292500  0.79208237     0.06600
H3855       H  0.86330455  0.57528812  0.80441575     0.06400
C3856       C  0.60473092  0.65810963  0.72992123     0.03500
C3857       C  0.61859099  0.66347543  0.75902374    -0.12700
C3858       C  0.64088375  0.64377561  0.77011021     0.01000
C3859       C  0.65996025  0.63051870  0.74809847    -0.11200
C3860       C  0.64556141  0.61890920  0.72148347     0.03500
C3861       C  0.61748405  0.63374368  0.71144925    -0.10600
H3862       H  0.60752116  0.67784528  0.77614067     0.09100
H3863       H  0.68027507  0.61906403  0.75697016     0.06600
H3864       H  0.60402355  0.62413818  0.69269576     0.06400
C3865       C  0.86449989  0.92288140  0.75883308     0.03500
C3866       C  0.87833450  0.89732951  0.74330728    -0.12700
C3867       C  0.90652480  0.88459561  0.75486524     0.01000
C3868       C  0.92029278  0.89868036  0.78075969    -0.11200
C3869       C  0.90582983  0.92197304  0.79685198     0.03500
C3870       C  0.87874857  0.93435148  0.78568530    -0.10600
H3871       H  0.86672944  0.88681453  0.72378899     0.09100
H3872       H  0.94214246  0.89059879  0.78972696     0.06600
H3873       H  0.86892041  0.95337311  0.79825410     0.06400
N3874       N  0.99554111  0.00645225  0.90523712    -0.36300
N3875       N  0.03959410  0.55753539  0.89036096    -0.56800
N3876       N  0.58033263  0.00363385  0.87094383    -0.36300
N3877       N  0.03403245  0.95448945  0.89043535    -0.56800
C3878       C  0.97787712  0.53545056  0.91243047     0.27300
C3879       C  0.97802263  0.98237344  0.91614975     0.27300
C3880       C  0.59826177  0.53045072  0.86643485     0.27300
C3881       C  0.59563717  0.97766537  0.86415404     0.27300
C3882       C  0.01353546  0.57438668  0.88741358     0.35900
C3883       C  0.55997386  0.57217720  0.87423058     0.35900
C3884       C  0.00657393  0.93896654  0.89495009     0.35900
C3885       C  0.55292628  0.93802883  0.87368965     0.35900
C3886       C  0.95057713  0.52712416  0.92854456    -0.21500
C3887       C  0.95313293  0.99310888  0.93327937    -0.21500
C3888       C  0.62803428  0.52058404  0.85983182    -0.21500
C3889       C  0.62665309  0.98523423  0.85772526    -0.21500
C3890       C  0.02041077  0.60104150  0.87001831    -0.22600
C3891       C  0.54764664  0.59921902  0.86277201    -0.22600
C3892       C  0.00775969  0.91001779  0.88188992    -0.22600
C3893       C  0.53780267  0.91028835  0.86706117    -0.22600
C3894       C  0.98314142  0.56412733  0.89705429    -0.17900
C3895       C  0.97841835  0.95335680  0.90233539    -0.17900
C3896       C  0.58217513  0.94769926  0.86097033    -0.17900
C3897       C  0.58961878  0.56160247  0.86512918    -0.17900
H3898       H  0.93246860  0.54243350  0.93595611     0.15000
H3899       H  0.93335463  0.97959755  0.94232760     0.15000
H3900       H  0.64854677  0.53487624  0.85525575     0.15000
H3901       H  0.64476764  0.96987989  0.85090686     0.15000
H3902       H  0.00524819  0.61847961  0.86149623     0.13300
H3903       H  0.55882909  0.61658130  0.84768292     0.13200
H3904       H  0.98886584  0.89315961  0.88012821     0.13300
H3905       H  0.54604336  0.89179223  0.85274942     0.13200
H3906       H  0.01176159  0.00543427  0.88729531     0.26500
H3907       H  0.55665090  0.00522247  0.87414336     0.26500
C3908       C  0.65111614  0.93907655  0.71520153     0.42800
N3909       N  0.67549060  0.97949040  0.73297543     0.01700
C3910       C  0.78899471  0.56669391  0.64863501    -0.06200
H3911       H  0.80569042  0.94364562  0.66095582     0.07200
C3912       C  0.81408544  0.95149764  0.77407130    -0.06500
Co3913     Co  0.71500163  0.51382609  0.68374619     0.74200
N3914       N  0.77163573  0.97808959  0.67184823    -0.25700
Co3915     Co  0.79430029  0.51178385  0.69894589     0.74100
C3916       C  0.83441886  0.93771213  0.75039770     0.42900
N3917       N  0.74210578  0.97502103  0.80006481     0.01300
N3918       N  0.80925230  0.97619881  0.73054167     0.01400
N3919       N  0.73716815  0.57040053  0.64817968    -0.46600
H3920       H  0.67119541  0.94853162  0.66571371     0.07200
N3921       N  0.74186410  0.98038911  0.66518211     0.01700
N3922       N  0.81233858  0.54498172  0.72939771     0.01400
C3923       C  0.83593645  0.58416697  0.75006833     0.43100
N3924       N  0.71223932  0.97578365  0.79314664    -0.25200
C3925       C  0.67198564  0.57219879  0.69098553    -0.06100
N3926       N  0.65694802  0.95590631  0.74089632    -0.46300
N3927       N  0.83293182  0.56795218  0.72338462    -0.46500
C3928       C  0.65338847  0.58559390  0.71637742     0.42800
N3929       N  0.74551234  0.54866025  0.66782317     0.01700
N3930       N  0.71607667  0.54324237  0.79384076    -0.25200
N3931       N  0.68281618  0.97986217  0.70302579    -0.25700
N3932       N  0.74603730  0.54274530  0.80030321     0.01300
H3933       H  0.67762815  0.56656666  0.81518537     0.07200
H3934       H  0.81132321  0.57380353  0.79729069     0.07300
N3935       N  0.77594241  0.54638219  0.66963909    -0.25700
N3936       N  0.80034810  0.97531390  0.76015542    -0.25300
N3937       N  0.67830023  0.54530062  0.73339305     0.01700
C3938       C  0.75586139  0.93838954  0.64204086     0.43100
C3939       C  0.69725779  0.95306928  0.80951020    -0.06600
N3940       N  0.80274575  0.54427866  0.75879376    -0.25300
H3941       H  0.81236367  0.94604662  0.79874689     0.07200
N3942       N  0.73177382  0.95725275  0.64789054    -0.46600
H3943       H  0.67245150  0.94833063  0.80897325     0.07200
C3944       C  0.72731709  0.57548786  0.83326607     0.42900
C3945       C  0.66881127  0.95504116  0.68983510    -0.06100
Co3946     Co  0.69626654  0.51070413  0.76297347     0.73800
N3947       N  0.74842304  0.95295001  0.82099484    -0.46300
C3948       C  0.76286771  0.58279142  0.63386713     0.43200
N3949       N  0.65902397  0.56716188  0.74161276    -0.46300
Co3950     Co  0.77274435  0.00930125  0.78089593     0.73900
C3951       C  0.81492514  0.56872025  0.77292865    -0.06600
C3952       C  0.78244376  0.95228644  0.65850157    -0.06200
N3953       N  0.68598185  0.54725146  0.70355531    -0.25700
N3954       N  0.83019574  0.95487365  0.72403683    -0.46400
H3955       H  0.81359806  0.56876969  0.64295373     0.07200
C3956       C  0.70242257  0.56308596  0.81333259    -0.06600
Cl3957     Cl  0.74490650  0.51130249  0.73132276    -0.49600
C3958       C  0.72111174  0.93797896  0.82844281     0.43000
H3959       H  0.67431463  0.58000724  0.66696453     0.07200
N3960       N  0.75344926  0.56092535  0.82402541    -0.46300
C3961       C  0.91990124  0.93367186  0.82541044    -0.05100
C3962       C  0.91285174  0.91934775  0.85442846    -0.32500
C3963       C  0.93013075  0.92704946  0.88084369     0.36700
C3964       C  0.95462235  0.94907270  0.87800810    -0.05500
C3965       C  0.96029992  0.96434283  0.84920068    -0.32400
C3966       C  0.94305509  0.95689271  0.82311266     0.36600
H3967       H  0.89488678  0.90136058  0.85623021     0.17000
O3968       O  0.92371419  0.91232889  0.90883301    -0.59900
H3969       H  0.97959145  0.98081463  0.84645879     0.17000
O3970       O  0.94983001  0.97143971  0.79507774    -0.60000
H3971       H  0.96872384  0.96141408  0.78692529     0.44000
H3972       H  0.93728241  0.89417248  0.90920564     0.43900
C3973       C  0.60691149  0.58088582  0.84167424    -0.05100
C3974       C  0.59797471  0.57705859  0.81095466    -0.32500
C3975       C  0.60774072  0.59803825  0.78807904     0.36700
C3976       C  0.62942201  0.62217295  0.79504598    -0.05500
C3977       C  0.63941809  0.62533936  0.82573302    -0.32400
C3978       C  0.62743101  0.60530481  0.84922022     0.36600
H3979       H  0.58126196  0.55893325  0.80512155     0.17000
O3980       O  0.59498967  0.59499472  0.75922538    -0.59900
H3981       H  0.65552625  0.64390580  0.83161610     0.17000
O3982       O  0.63489429  0.61046928  0.87944828    -0.60000
H3983       H  0.61778283  0.62313213  0.88754585     0.44000
H3984       H  0.57423904  0.60445358  0.76081484     0.43900
C3985       C  0.95620623  0.57518180  0.87864852    -0.05100
C3986       C  0.94099852  0.55353392  0.85964734    -0.32500
C3987       C  0.92101403  0.56256979  0.83633375     0.36700
C3988       C  0.91588494  0.59401809  0.83131717    -0.05500
C3989       C  0.92810067  0.61565721  0.85233598    -0.32400
C3990       C  0.94836763  0.60641120  0.87601894     0.36600
H3991       H  0.94634840  0.52942147  0.86126381     0.17000
O3992       O  0.90989285  0.54080965  0.81615394    -0.59900
H3993       H  0.92353843  0.63995768  0.84902731     0.17000
O3994       O  0.96141203  0.62768961  0.89577844    -0.60000
H3995       H  0.96589635  0.64692495  0.88347290     0.44000
H3996       H  0.89268482  0.52971831  0.82768232     0.43900
C3997       C  0.62639963  0.89260172  0.79154701    -0.05100
C3998       C  0.61159678  0.92040848  0.78411458    -0.32500
C3999       C  0.59801905  0.93824998  0.80661871     0.36700
C4000       C  0.59706769  0.92792235  0.83755188    -0.05500
C4001       C  0.60821714  0.89862865  0.84496979    -0.32400
C4002       C  0.62286111  0.88080032  0.82207133     0.36600
H4003       H  0.60874712  0.92827193  0.76058261     0.17000
O4004       O  0.58374268  0.96494654  0.79782431    -0.59900
H4005       H  0.60482328  0.88987746  0.86830717     0.17000
O4006       O  0.63292307  0.85185492  0.82934198    -0.60000
H4007       H  0.61441696  0.83796896  0.82697344     0.44000
H4008       H  0.60090493  0.98038016  0.79403614     0.43900
C4009       C  0.61829843  0.88854928  0.96001790    -0.05100
C4010       C  0.61002252  0.86588884  0.93847337    -0.32500
C4011       C  0.62966927  0.86046315  0.91250289     0.36700
C4012       C  0.65568329  0.88036604  0.90624294    -0.05500
C4013       C  0.66533727  0.90053433  0.92972824    -0.32400
C4014       C  0.64810457  0.90289352  0.95736690     0.36600
H4015       H  0.58769885  0.85379031  0.94076437     0.17000
O4016       O  0.62277367  0.83682856  0.89270278    -0.59900
H4017       H  0.68670001  0.91421649  0.92676568     0.17000
O4018       O  0.65793073  0.92349526  0.97930042    -0.60000
H4019       H  0.66852536  0.91086529  0.99521198     0.44000
H4020       H  0.60046316  0.83851692  0.88742838     0.43900
C4021       C  0.66887106  0.56993678  0.93518794    -0.05100
C4022       C  0.67214704  0.53881742  0.94344916    -0.32500
C4023       C  0.64840277  0.52250015  0.95983178     0.36700
C4024       C  0.61929918  0.53619044  0.96547389    -0.05500
C4025       C  0.61676816  0.56783086  0.95921973    -0.32400
C4026       C  0.64181039  0.58500425  0.94556602     0.36600
H4027       H  0.69339035  0.52718264  0.93741798     0.17000
O4028       O  0.65373299  0.49293409  0.96976325    -0.59900
H4029       H  0.59521688  0.57913679  0.96454294     0.17000
O4030       O  0.63905944  0.61623003  0.94150404    -0.60000
H4031       H  0.64467488  0.62524167  0.96180949     0.44000
H4032       H  0.65813263  0.49457468  0.99230656     0.43900
C4033       C  0.68567525  0.56195200  0.56832709    -0.05100
C4034       C  0.68341530  0.52986562  0.56455185    -0.32500
C4035       C  0.65554535  0.51354925  0.57159578     0.36700
C4036       C  0.62931764  0.52927134  0.58288878    -0.06400
C4037       C  0.63153185  0.56119790  0.58614730    -0.32400
C4038       C  0.65946927  0.57744542  0.57988141     0.36600
H4039       H  0.70334068  0.51745363  0.55608965     0.17000
O4040       O  0.65359850  0.48260308  0.56551460    -0.59900
H4041       H  0.61091730  0.57352941  0.59211225     0.17000
O4042       O  0.66107447  0.60838773  0.58588092    -0.60000
H4043       H  0.67253201  0.60993613  0.60570474     0.44000
H4044       H  0.64358962  0.48108911  0.54489700     0.43900
C4045       C  0.67833205  0.87141185  0.62291959    -0.05100
C4046       C  0.65049171  0.85990058  0.63688367    -0.32500
C4047       C  0.62165005  0.86834659  0.62464921     0.36700
C4048       C  0.62089697  0.88760049  0.59798434    -0.05500
C4049       C  0.64865387  0.89771797  0.58350468    -0.32400
C4050       C  0.67705048  0.89030909  0.59578091     0.36600
H4051       H  0.65113629  0.84542082  0.65766845     0.17000
O4052       O  0.59457979  0.85836626  0.63912714    -0.59900
H4053       H  0.64826630  0.91333614  0.56348695     0.17000
O4054       O  0.70344772  0.90382950  0.58253453    -0.60000
H4055       H  0.70374042  0.89779227  0.56033217     0.44000
H4056       H  0.58677254  0.87637118  0.65049363     0.43900
C4057       C  0.92662054  0.63171696  0.96568054    -0.05100
C4058       C  0.93694808  0.66010079  0.97775034    -0.32500
C4059       C  0.93353980  0.68752266  0.96071103     0.36700
C4060       C  0.91885692  0.68680812  0.93170442    -0.05500
C4061       C  0.90579193  0.65889188  0.92119094    -0.32400
C4062       C  0.90944041  0.63137911  0.93818044     0.36600
H4063       H  0.94944304  0.66061683  0.99949315     0.17000
O4064       O  0.94498566  0.71476325  0.97232567    -0.59900
H4065       H  0.89314418  0.65841153  0.89954041     0.17000
O4066       O  0.89780518  0.60410540  0.92684756    -0.60000
H4067       H  0.87587558  0.60267343  0.93442322     0.44000
H4068       H  0.96531162  0.71856721  0.96144469     0.43900
C4069       C  0.54559177  0.64482636  0.96141920    -0.05100
C4070       C  0.55862322  0.64452195  0.93137413    -0.32500
C4071       C  0.56448413  0.67215328  0.91471642     0.36700
C4072       C  0.55747827  0.70067501  0.92822666    -0.05500
C4073       C  0.54378762  0.70094698  0.95808794    -0.32400
C4074       C  0.53728457  0.67321010  0.97444076     0.36600
H4075       H  0.56486615  0.62282660  0.92117172     0.17000
O4076       O  0.57812748  0.67115992  0.88563192    -0.59900
H4077       H  0.53856820  0.72268666  0.96885872     0.17000
O4078       O  0.52304444  0.67396679  0.00323678    -0.60000
H4079       H  0.50054964  0.67613118  0.99908316     0.44000
H4080       H  0.60045157  0.67651378  0.88872990     0.43900
C4081       C  0.92693504  0.62482647  0.60635588    -0.05100
C4082       C  0.93479428  0.65513611  0.59707079    -0.32500
C4083       C  0.91396585  0.67866455  0.60118079     0.36700
C4084       C  0.88499323  0.67251831  0.61624405    -0.05500
C4085       C  0.87798618  0.64274579  0.62822855    -0.32400
C4086       C  0.89876375  0.61863269  0.62292300     0.36600
H4087       H  0.95600774  0.66003043  0.58360809     0.17000
O4088       O  0.92098848  0.70726107  0.58820064    -0.59900
H4089       H  0.85607315  0.63799044  0.64043975     0.17000
O4090       O  0.89079745  0.58904021  0.63232546    -0.60000
H4091       H  0.87412632  0.58213407  0.61809481     0.44000
H4092       H  0.94054676  0.71450457  0.59802308     0.43900
C4093       C  0.60172202  0.68239715  0.62673026    -0.05100
C4094       C  0.57290792  0.68696807  0.61252232    -0.32500
C4095       C  0.55333988  0.66233516  0.60501894     0.36700
C4096       C  0.56328789  0.63198485  0.60916091    -0.05500
C4097       C  0.59153490  0.62697522  0.62458698    -0.32400
C4098       C  0.61109398  0.65208701  0.63279304     0.36600
H4099       H  0.56609858  0.70982860  0.60556218     0.17000
O4100       O  0.52533365  0.66811802  0.59132795    -0.59900
H4101       H  0.59895883  0.60383471  0.62931414     0.17000
O4102       O  0.63937596  0.64672629  0.64601304    -0.60000
H4103       H  0.65532603  0.65450377  0.63067662     0.44000
H4104       H  0.53012477  0.67071001  0.56874494     0.43900
loop_ 
_geom_bond_atom_site_label_1 
_geom_bond_atom_site_label_2 
_geom_bond_distance 
_geom_bond_site_symmetry_2 
_ccdc_geom_bond_type 
C1           N19   1.356       .  A
C1           C38   1.466       .  S
C1          C186   1.488       .  S
N2           N19   1.325       .  A
N2           N24   1.319       .  A
N2         Co552   2.108   1_554  S
C3           N28   1.348       .  A
C3           C41   1.473       .  S
C3           H48   1.081       .  S
H4           C45   1.081       .  S
C5           N29   1.331       .  A
C5            C9   1.460       .  S
C5           H34   1.082       .  S
Co6          N46   2.126       .  S
Co6          N22   2.075       .  S
Co6         N537   2.087       .  S
Co6         N527   2.114       .  S
Co6        Cl563   2.443       .  S
N7           C45   1.358       .  A
N7           N14   1.321       .  A
N7           Co8   2.106   1_554  S
Co8          N11   2.149   1_556  S
Co8         N541   2.118       .  S
Co8         N528   2.148       .  S
Co8         Cl50   2.483       .  S
C9           N47   1.364       .  A
C9          C177   1.507       .  S
N10          N17   1.318       .  A
N10          N40   1.333       .  A
N10         Co43   2.085   1_554  S
N11          N29   1.323       .  A
N11          N47   1.341       .  A
N12          C41   1.349       .  A
N12          N22   1.315       .  A
H13          C38   1.082       .  S
N14          N35   1.321       .  A
N14        Co519   2.116   1_554  S
N15          N33   1.317       .  A
N15          N20   1.346       .  A
N15        Co521   2.142       .  S
C16          N20   1.373       .  A
C16          C44   1.462       .  S
C16         C206   1.520       .  S
N17          C32   1.331       .  A
N17        Co552   2.080   1_554  S
C18          N46   1.359       .  A
C18          C21   1.483       .  S
C18          H52   1.082       .  S
C21          N42   1.351       .  A
C21         C195   1.503       .  S
N22          N28   1.319       .  A
N23          C49   1.336       .  A
N23          N25   1.318       .  A
N23         Co39   2.075       .  S
N24          C38   1.348       .  A
N24        Co519   2.089   1_554  S
N25          N53   1.336       .  A
N25        Co556   2.141       .  S
H26          C49   1.082       .  S
H27          C44   1.072       .  S
N28        Co521   2.108       .  S
N29         Co43   2.077   1_554  S
N30          N42   1.322       .  A
N30          N46   1.315       .  A
N30         Co39   2.081       .  S
C31          N35   1.354       .  A
C31          C45   1.474       .  S
C31          C63   1.505       .  S
C32          C51   1.461       .  S
C32          H36   1.081       .  S
N33          C44   1.310       .  A
N33        Co556   2.060       .  S
C37          N53   1.366       .  A
C37          C49   1.462       .  S
C37          C74   1.494       .  S
Co39        N515   2.104       .  S
Co39        N530   2.082       .  S
Co39       Cl563   2.440       .  S
N40          C51   1.354       .  A
C41          C83   1.476       .  S
Co43        N538   2.138       .  S
Co43        N546   2.054       .  S
Co43        Cl50   2.470       .  S
Cl50       Co519   2.446       .  S
Cl50       Co552   2.434       .  S
C51          C54   1.485       .  S
C54          C55   1.409       .  A
C54          C59   1.425       .  A
C55          H60   1.082       .  S
C55          C56   1.386       .  A
C56         C502   1.484       .  S
C56          C57   1.394       .  A
C57          H61   1.085       .  S
C57          C58   1.410       .  A
C58         C154   1.494       .  S
C58          C59   1.422       .  A
C59          H62   1.083       .  S
C63          C64   1.434       .  A
C63          C68   1.411       .  A
C64          H69   1.082       .  S
C64          C65   1.432       .  A
C65         C164   1.501       .  S
C65          C66   1.405       .  A
C66          H70   1.086       .  S
C66          C67   1.384       .  A
C67         C493   1.474       .  S
C67          C68   1.391       .  A
C68          H71   1.084       .  S
C72         C174   1.497       .  S
C72          C73   1.424       .  A
C72          C77   1.406       .  A
C73          H78   1.083       .  S
C73          C74   1.425       .  A
C74          C75   1.401       .  A
C75          H79   1.086       .  S
C75          C76   1.393       .  A
C76         C481   1.475       .  S
C76          C77   1.397       .  A
C77          H80   1.085       .  S
C81         C160   1.482       .  S
C81          C82   1.415       .  A
C81          C86   1.412       .  A
C82          H87   1.083       .  S
C82          C83   1.411       .  A
C83          C84   1.404       .  A
C84          H88   1.086       .  S
C84          C85   1.384       .  A
C85         C469   1.473       .  S
C85          C86   1.396       .  A
C86          H89   1.083       .  S
N90          C95   1.351       .  A
N90        C2146   1.345       .  A
N90         H122   1.042       .  S
N91          C99   1.341       .  A
N91         C611   1.353       .  A
N92          C97   1.362       .  A
N92        C2148   1.365       .  A
N92         H123   1.038       .  S
N93         C101   1.341       .  A
N93         C613   1.356       .  A
C94        N2142   1.345   1_455  A
C94         C102   1.376       .  A
C94         C110   1.397       .  A
C95         C111   1.401       .  A
C95         C103   1.385       .  A
C96        N2144   1.365   1_455  A
C96         C104   1.386       .  A
C96         C113   1.429       .  A
C97         C112   1.426       .  A
C97         C105   1.385       .  A
C98         N604   1.352       .  A
C98         C110   1.406       .  A
C98         C106   1.379       .  A
C99         C113   1.420       .  A
C99         C107   1.396       .  A
C100        N606   1.355       .  A
C100        C108   1.377       .  A
C100        C111   1.402       .  A
C101        C109   1.396       .  A
C101        C112   1.418       .  A
C102        H114   1.065       .  S
C102       C2155   1.365   1_455  A
C103        H115   1.083       .  S
C103       C2154   1.366       .  A
C104        H116   1.083       .  S
C104       C2157   1.376   1_455  A
C105        H117   1.083       .  S
C105       C2156   1.374       .  A
C106        H118   1.081       .  S
C106        C620   1.373       .  A
C107        H119   1.080       .  S
C107        C619   1.370       .  A
C108        H120   1.082       .  S
C108        C622   1.373       .  A
C109        H121   1.080       .  S
C109        C621   1.373       .  A
C110        C478   1.476       .  S
C111        C466   1.481       .  S
C112        C490   1.482       .  S
C113        C505   1.489       .  S
C124        N142   1.352       .  A
C124        C161   1.486       .  S
C124        C265   1.522       .  S
N125        N142   1.320       .  A
N125        N147   1.318       .  A
N125      Co2214   2.088       .  S
C126        N151   1.362       .  A
C126        C164   1.477       .  S
C126        H171   1.081       .  S
H127        C168   1.074       .  S
C128        N152   1.334       .  A
C128        C132   1.470       .  S
C128        H157   1.082       .  S
Co129       N169   2.103       .  S
Co129       N145   2.097       .  S
Co129      N2199   2.147       .  S
Co129      N2189   2.067       .  S
Co129      Cl173   2.486       .  S
N130        C168   1.357       .  A
N130        N137   1.319       .  A
N130      Co2183   2.121   1_455  S
Co131       N151   2.128       .  S
Co131       N138   2.147       .  S
Co131      N2182   2.131       .  S
Co131      N2186   2.098       .  S
Co131      Cl173   2.476       .  S
C132        N170   1.353       .  A
C132        C247   1.494       .  S
N133        N140   1.318       .  A
N133        N163   1.333       .  A
N133      Co2218   2.124   1_455  S
N134        N152   1.322       .  A
N134        N170   1.334       .  A
N134      Co2183   2.097   1_455  S
N135        C164   1.351       .  A
N135        N145   1.316       .  A
H136        C161   1.074       .  S
N137        N158   1.310       .  A
N137      Co2181   2.070   1_455  S
N138        N156   1.321       .  A
N138        N143   1.340       .  A
C139        N143   1.369       .  A
C139        C167   1.465       .  S
C139        C276   1.510       .  S
N140        C155   1.341       .  A
N140      Co2214   2.090       .  S
C141        N169   1.358       .  A
C141        C144   1.480       .  S
C141        H175   1.082       .  S
C144        N165   1.346       .  A
C144        C258   1.488       .  S
N145        N151   1.324       .  A
N146        C172   1.333       .  A
N146        N148   1.315       .  A
N146       Co162   2.064       .  S
N147        C161   1.366       .  A
N147      Co2181   2.147   1_455  S
N148        N176   1.332       .  A
N148       Co166   2.100       .  S
H149        C172   1.082       .  S
H150        C167   1.082       .  S
N152      Co2218   2.109   1_455  S
N153        N165   1.311       .  A
N153        N169   1.315       .  A
N153       Co162   2.071       .  S
C154        N158   1.347       .  A
C154        C168   1.475       .  S
C155        C174   1.469       .  S
C155        H159   1.082       .  S
N156        C167   1.331       .  A
N156       Co166   2.088       .  S
C160        N176   1.359       .  A
C160        C172   1.454       .  S
Co162      N2177   2.082       .  S
Co162      N2192   2.098       .  S
Co162      Cl173   2.416       .  S
N163        C174   1.362       .  A
Co166      N2185   2.130       .  S
Co166      N2204   2.098       .  S
Co166      Cl173   2.460       .  S
C177        C178   1.410       .  A
C177        C182   1.433       .  A
C178        H183   1.084       .  S
C178        C179   1.393       .  A
C179        C454   1.480       .  S
C179        C180   1.391       .  A
C180        H184   1.085       .  S
C180        C181   1.406       .  A
C181        C347   1.498       .  S
C181        C182   1.435       .  A
C182        H185   1.082       .  S
C186        C187   1.424       .  A
C186        C191   1.407       .  A
C187        H192   1.083       .  S
C187        C188   1.419       .  A
C188        C357   1.494       .  S
C188        C189   1.405       .  A
C189        H193   1.085       .  S
C189        C190   1.394       .  A
C190        C442   1.490       .  S
C190        C191   1.398       .  A
C191        H194   1.084       .  S
C195        C196   1.410       .  A
C195        C200   1.425       .  A
C196        H201   1.083       .  S
C196        C197   1.398       .  A
C197        C430   1.502       .  S
C197        C198   1.409       .  A
C198        H202   1.079       .  S
C198        C199   1.411       .  A
C199        C353   1.509       .  S
C199        C200   1.426       .  A
C200        H203   1.083       .  S
C204        C367   1.519       .  S
C204        C205   1.444       .  A
C204        C209   1.411       .  A
C205        H210   1.082       .  S
C205        C206   1.442       .  A
C206        C207   1.407       .  A
C207        H211   1.085       .  S
C207        C208   1.387       .  A
C208        C421   1.490       .  S
C208        C209   1.402       .  A
C209        H212   1.080       .  S
N213        C217   1.347       .  A
N213        C731   1.336       .  A
N213        H245   1.045       .  S
N214        C222   1.342       .  A
N214       C1247   1.354       .  A
N215        C219   1.359       .  A
N215        C733   1.361       .  A
N215        H246   1.037       .  S
N216        C224   1.344       .  A
N216       C1249   1.356       .  A
C217        C225   1.387       .  A
C217        C233   1.401       .  A
C218        N726   1.336       .  A
C218        C234   1.394       .  A
C218        C226   1.391       .  A
C219        C227   1.389       .  A
C219        C236   1.426       .  A
C220        N728   1.359       .  A
C220        C235   1.417       .  A
C220        C228   1.384       .  A
C221       N1240   1.354       .  A
C221        C233   1.405   1_565  A
C221        C229   1.380       .  A
C222        C236   1.420       .  A
C222        C230   1.395       .  A
C223       N1242   1.355       .  A
C223        C231   1.362       .  A
C223        C234   1.403   1_565  A
C224        C232   1.391       .  A
C224        C235   1.419       .  A
C225        H237   1.082   1_545  S
C225        C739   1.370       .  A
C226        H238   1.083   1_545  S
C226        C738   1.367       .  A
C227        H239   1.083       .  S
C227        C741   1.375       .  A
C228        H240   1.082       .  S
C228        C740   1.377       .  A
C229        H241   1.082       .  S
C229       C1256   1.374       .  A
C230        H242   1.081       .  S
C230       C1255   1.375       .  A
C231        H243   1.066       .  S
C231       C1258   1.363       .  A
C232        H244   1.081       .  S
C232       C1257   1.363       .  A
C233        C445   1.489       .  S
C234        C433   1.509       .  S
C235        C418   1.488       .  S
C236        C457   1.478       .  S
C247        C248   1.433       .  A
C247        C252   1.404       .  A
C248        H253   1.080       .  S
C248        C249   1.436       .  A
C249        C317   1.491       .  S
C249        C250   1.410       .  A
C250        H254   1.085       .  S
C250        C251   1.391       .  A
C251        C406   1.492       .  S
C251        C252   1.382       .  A
C252        H255   1.083       .  S
C256        C332   1.488       .  S
C256        C257   1.425       .  A
C256        C261   1.410       .  A
C257        H262   1.083       .  S
C257        C258   1.419       .  A
C258        C259   1.403       .  A
C259        H263   1.085       .  S
C259        C260   1.380       .  A
C260        C397   1.471       .  S
C260        C261   1.390       .  A
C261        H264   1.083       .  S
C265        C266   1.413       .  A
C265        C270   1.446       .  A
C266        H271   1.083       .  S
C266        C267   1.386       .  A
C267        C385   1.479       .  S
C267        C268   1.385       .  A
C268        H272   1.086       .  S
C268        C269   1.402       .  A
C269        C337   1.514       .  S
C269        C270   1.450       .  A
C270        H273   1.081       .  S
C274        C325   1.499       .  S
C274        C275   1.435       .  A
C274        C279   1.406       .  A
C275        H280   1.082       .  S
C275        C276   1.432       .  A
C276        C277   1.407       .  A
C277        H281   1.084       .  S
C277        C278   1.386       .  A
C278        C370   1.466       .  S
C278        C279   1.383       .  A
C279        H282   1.084       .  S
N283        C288   1.347       .  A
N283       C1313   1.345       .  A
N283        H315   1.026       .  S
N284        C291   1.352       .  A
N284       C2344   1.351       .  A
N285        C290   1.351       .  A
N285       C1315   1.354       .  A
N285        H316   1.026       .  S
N286        C293   1.351       .  A
N286       C2346   1.350       .  A
C287       N1309   1.351       .  A
C287        C295   1.388       .  A
C287        C303   1.414       .  A
C288        C304   1.406       .  A
C288        C296   1.385       .  A
C289       N1311   1.354       .  A
C289        C297   1.384       .  A
C289        C306   1.413       .  A
C290        C305   1.418       .  A
C290        C298   1.386       .  A
C291        C303   1.410       .  A
C291        C299   1.384       .  A
C292       N2336   1.355       .  A
C292        C306   1.415       .  A
C292        C300   1.383       .  A
C293        C301   1.386       .  A
C293        C304   1.411       .  A
C294       N2338   1.349       .  A
C294        C302   1.386       .  A
C294        C305   1.412       .  A
C295        H307   1.082       .  S
C295       C1322   1.370   1_545  A
C296        H308   1.082       .  S
C296       C1321   1.377       .  A
C297        H309   1.077       .  S
C297       C1324   1.372   1_545  A
C298        H310   1.078       .  S
C298       C1323   1.374       .  A
C299        H311   1.074       .  S
C299       C2352   1.359       .  A
C300        H312   1.082       .  S
C300       C2351   1.358       .  A
C301        H313   1.082       .  S
C301       C2354   1.370       .  A
C302        H314   1.081       .  S
C302       C2353   1.368       .  A
C303        C394   1.491       .  S
C304        C373   1.483       .  S
C305        C409   1.480       .  S
C306        C382   1.484       .  S
C317        N335   1.356       .  A
C317        C354   1.469       .  S
N318        N335   1.318       .  A
N318        N340   1.318       .  A
N318      Co1381   2.097       .  S
C319        N344   1.358       .  A
C319        C357   1.488       .  S
C319        H364   1.081       .  S
H320        C361   1.081       .  S
C321        N345   1.337       .  A
C321        C325   1.470       .  S
C321        H350   1.082       .  S
Co322       N362   2.120       .  S
Co322       N338   2.071       .  S
Co322      N1366   2.104   1_545  S
Co322      N1356   2.126   1_545  S
Co322      Cl366   2.439       .  S
N323        C361   1.353       .  A
N323        N330   1.320       .  A
N323      Co1350   2.095       .  S
Co324       N344   2.132       .  S
Co324       N331   2.111       .  S
Co324      N1349   2.100   1_545  S
Co324      N1353   2.107   1_545  S
Co324      Cl366   2.506       .  S
C325        N363   1.360       .  A
N326        N333   1.322       .  A
N326        N356   1.339       .  A
N326       Co359   2.112       .  S
N327        N345   1.320       .  A
N327        N363   1.335       .  A
N327      Co1350   2.110       .  S
N328        C357   1.348       .  A
N328        N338   1.314       .  A
H329        C354   1.081       .  S
N330        N351   1.326       .  A
N330      Co1348   2.135       .  S
N331        N349   1.324       .  A
N331        N336   1.333       .  A
C332        N336   1.358       .  A
C332        C360   1.464       .  S
N333        C348   1.343       .  A
N333      Co1381   2.134       .  S
C334        N362   1.361       .  A
C334        C337   1.480       .  S
C334        H368   1.082       .  S
C337        N358   1.362       .  A
N338        N344   1.317       .  A
N339        C365   1.345       .  A
N339        N341   1.322       .  A
N339       Co355   2.115       .  S
N340        C354   1.354       .  A
N340      Co1348   2.100       .  S
N341        N369   1.336       .  A
N341      Co1385   2.132       .  S
H342        C365   1.081       .  S
H343        C360   1.082       .  S
N345       Co359   2.104       .  S
N346        N358   1.321       .  A
N346        N362   1.316       .  A
N346       Co355   2.107       .  S
C347        N351   1.360       .  A
C347        C361   1.469       .  S
C348        C367   1.478       .  S
C348        H352   1.080       .  S
N349        C360   1.336       .  A
N349      Co1385   2.102       .  S
C353        N369   1.362       .  A
C353        C365   1.472       .  S
Co355      N1344   2.093   1_545  S
Co355      N1359   2.119   1_545  S
Co355      Cl366   2.465       .  S
N356        C367   1.358       .  A
Co359      N1367   2.114       .  S
Co359      N1375   2.104       .  S
Co359     Cl1392   2.441       .  S
Cl366     Co1385   2.451       .  S
C370        C371   1.407       .  A
C370        C375   1.398       .  A
C371        H376   1.084       .  S
C371        C372   1.404       .  A
C372        C373   1.404       .  A
C372        O377   1.371       .  S
C373        C374   1.407       .  A
C374        H378   1.084       .  S
C374        C375   1.390       .  A
C375        O379   1.372       .  S
O377        H381   0.992       .  S
O379        H380   0.992       .  S
C382        C383   1.391       .  A
C382        C387   1.411       .  A
C383        H388   1.085       .  S
C383        C384   1.379       .  A
C384        C385   1.417       .  A
C384        O389   1.369       .  S
C385        C386   1.398       .  A
C386        H390   1.083       .  S
C386        C387   1.404       .  A
C387        O391   1.361       .  S
O389        H393   0.992       .  S
O391        H392   0.991       .  S
C394        C395   1.409       .  A
C394        C399   1.405       .  A
C395        H400   1.082       .  S
C395        C396   1.389       .  A
C396        C397   1.397       .  A
C396        O401   1.371       .  S
C397        C398   1.409       .  A
C398        H402   1.084       .  S
C398        C399   1.405       .  A
C399        O403   1.373       .  S
O401        H405   0.992       .  S
O403        H404   0.993       .  S
C406        C407   1.413       .  A
C406        C411   1.398       .  A
C407        H412   1.071       .  S
C407        C408   1.381       .  A
C408        C409   1.394       .  A
C408        O413   1.374       .  S
C409        C410   1.400       .  A
C410        H414   1.070       .  S
C410        C411   1.409       .  A
C411        O415   1.369       .  S
O413        H417   0.992       .  S
O415        H416   0.992       .  S
C418        C419   1.402       .  A
C418        C423   1.408       .  A
C419        H424   1.083       .  S
C419        C420   1.412       .  A
C420        C421   1.415       .  A
C420        O425   1.370       .  S
C421        C422   1.405       .  A
C422        H426   1.084       .  S
C422        C423   1.391       .  A
C423        O427   1.371       .  S
O425        H429   0.992       .  S
O427        H428   0.992       .  S
C430        C431   1.401       .  A
C430        C435   1.420       .  A
C431        H436   1.084       .  S
C431        C432   1.400       .  A
C432        C433   1.417       .  A
C432        O437   1.369   1_545  S
C433        C434   1.401       .  A
C434        H438   1.081       .  S
C434        C435   1.408       .  A
C435        O439   1.370       .  S
O437        H441   0.992       .  S
O439        H440   0.991       .  S
C442        C443   1.404       .  A
C442        C447   1.415       .  A
C443        H448   1.083       .  S
C443        C444   1.398       .  A
C444        C445   1.414       .  A
C444        O449   1.371   1_545  S
C445        C446   1.397       .  A
C446        H450   1.078       .  S
C446        C447   1.398       .  A
C447        O451   1.370       .  S
O449        H453   0.992       .  S
O451        H452   0.991       .  S
C454        C455   1.407       .  A
C454        C459   1.415       .  A
C455        H460   1.083       .  S
C455        C456   1.410       .  A
C456        C457   1.409       .  A
C456        O461   1.369       .  S
C457        C458   1.390       .  A
C458        H462   1.084       .  S
C458        C459   1.375       .  A
C459        O463   1.370       .  S
O461        H465   0.991       .  S
O463        H464   0.992       .  S
C466        C467   1.406       .  A
C466        C471   1.403       .  A
C467        H472   1.084       .  S
C467        C468   1.398       .  A
C468        C469   1.404       .  A
C468        O473   1.371       .  S
C469        C470   1.405       .  A
C470        H474   1.084       .  S
C470        C471   1.401       .  A
C471        O475   1.371       .  S
O473        H477   0.992       .  S
O475        H476   0.992       .  S
C478        C479   1.394       .  A
C478        C483   1.411       .  A
C479        H484   1.080       .  S
C479        C480   1.395       .  A
C480        C481   1.412       .  A
C480        O485   1.372       .  S
C481        C482   1.402       .  A
C482        H486   1.084       .  S
C482        C483   1.399       .  A
C483        O487   1.372       .  S
O485        H489   0.992       .  S
O487        H488   0.991       .  S
C490        C491   1.399       .  A
C490        C495   1.410       .  A
C491        H496   1.085       .  S
C491        C492   1.384       .  A
C492        C493   1.410       .  A
C492        O497   1.374       .  S
C493        C494   1.404       .  A
C494        H498   1.083       .  S
C494        C495   1.410       .  A
C495        O499   1.371       .  S
O497        H501   0.992       .  S
O499        H500   0.991       .  S
C502        C503   1.404       .  A
C502        C507   1.408       .  A
C503        H508   1.078       .  S
C503        C504   1.384       .  A
C504        C505   1.402       .  A
C504        O509   1.374       .  S
C505        C506   1.413       .  A
C506        H510   1.080       .  S
C506        C507   1.412       .  A
C507        O511   1.374       .  S
O509        H513   0.992       .  S
O511        H512   0.991       .  S
C514        N532   1.355       .  A
C514        C551   1.463       .  S
C514        C699   1.482       .  S
N515        N532   1.325       .  A
N515        N537   1.319       .  A
C516        N541   1.351       .  A
C516        C554   1.477       .  S
C516        H561   1.081       .  S
H517        C558   1.081       .  S
C518        N542   1.334       .  A
C518        C522   1.465       .  S
C518        H547   1.082       .  S
Co519       N559   2.126       .  S
Co519       N535   2.077       .  S
N520        C558   1.357       .  A
N520        N527   1.322       .  A
N520       Co521   2.106       .  S
Co521       N524   2.147       .  S
Co521      Cl563   2.490       .  S
C522        N560   1.364       .  A
C522        C690   1.513       .  S
N523        N530   1.319       .  A
N523        N553   1.333       .  A
N523       Co556   2.091       .  S
N524        N542   1.322       .  A
N524        N560   1.342       .  A
N525        C554   1.348       .  A
N525        N535   1.315       .  A
H526        C551   1.082       .  S
N527        N548   1.321       .  A
N528        N546   1.317       .  A
N528        N533   1.345       .  A
C529        N533   1.373       .  A
C529        C557   1.460       .  S
C529        C719   1.516       .  S
N530        C545   1.331       .  A
C531        N559   1.359       .  A
C531        C534   1.483       .  S
C531        H565   1.082       .  S
C534        N555   1.353       .  A
C534        C708   1.506       .  S
N535        N541   1.320       .  A
N536        C562   1.335       .  A
N536        N538   1.319       .  A
N536       Co552   2.084       .  S
N537        C551   1.346       .  A
N538        N566   1.336       .  A
H539        C562   1.082       .  S
H540        C557   1.075       .  S
N542       Co556   2.092       .  S
N543        N555   1.324       .  A
N543        N559   1.316       .  A
N543       Co552   2.085       .  S
C544        N548   1.353       .  A
C544        C558   1.472       .  S
C544        C576   1.501       .  S
C545        C564   1.460       .  S
C545        H549   1.082       .  S
N546        C557   1.312       .  A
C550        N566   1.366       .  A
C550        C562   1.463       .  S
C550        C587   1.494       .  S
N553        C564   1.354       .  A
C554        C596   1.481       .  S
Co556      Cl563   2.460       .  S
C564        C567   1.484       .  S
C567        C568   1.408       .  A
C567        C572   1.425       .  A
C568        H573   1.083       .  S
C568        C569   1.385       .  A
C569       C1015   1.484       .  S
C569        C570   1.394       .  A
C570        H574   1.084       .  S
C570        C571   1.411       .  A
C571        C667   1.494       .  S
C571        C572   1.422       .  A
C572        H575   1.083       .  S
C576        C577   1.431       .  A
C576        C581   1.410       .  A
C577        H582   1.082       .  S
C577        C578   1.429       .  A
C578        C677   1.500       .  S
C578        C579   1.407       .  A
C579        H583   1.086       .  S
C579        C580   1.386       .  A
C580       C1006   1.474       .  S
C580        C581   1.391       .  A
C581        H584   1.084       .  S
C585        C687   1.497       .  S
C585        C586   1.424       .  A
C585        C590   1.407       .  A
C586        H591   1.083       .  S
C586        C587   1.425       .  A
C587        C588   1.401       .  A
C588        H592   1.085       .  S
C588        C589   1.394       .  A
C589        C994   1.479       .  S
C589        C590   1.397       .  A
C590        H593   1.084       .  S
C594        C673   1.488       .  S
C594        C595   1.417       .  A
C594        C599   1.415       .  A
C595        H600   1.083       .  S
C595        C596   1.413       .  A
C596        C597   1.406       .  A
C597        H601   1.085       .  S
C597        C598   1.386       .  A
C598        C982   1.479       .  S
C598        C599   1.397       .  A
C599        H602   1.083       .  S
N603        C608   1.349       .  A
N603       C2659   1.345       .  A
N603        H635   1.043       .  S
N604        C612   1.343       .  A
N605        C610   1.362       .  A
N605       C2661   1.366       .  A
N605        H636   1.037       .  S
N606        C614   1.342       .  A
C607       N2655   1.343   1_455  A
C607        C615   1.377       .  A
C607        C623   1.396       .  A
C608        C624   1.406       .  A
C608        C616   1.388       .  A
C609       N2657   1.366   1_455  A
C609        C617   1.387       .  A
C609        C626   1.431       .  A
C610        C625   1.428       .  A
C610        C618   1.386       .  A
C611        C623   1.405   1_554  A
C611        C619   1.379       .  A
C612        C626   1.421       .  A
C612        C620   1.395       .  A
C613        C621   1.377       .  A
C613        C624   1.403   1_554  A
C614        C622   1.396       .  A
C614        C625   1.418       .  A
C615        H627   1.067       .  S
C615       C2668   1.365   1_455  A
C616        H628   1.083       .  S
C616       C2667   1.368       .  A
C617        H629   1.083       .  S
C617       C2670   1.374   1_455  A
C618        H630   1.083       .  S
C618       C2669   1.372       .  A
C619        H631   1.082       .  S
C620        H632   1.082       .  S
C621        H633   1.082       .  S
C622        H634   1.081       .  S
C623        C991   1.479       .  S
C624        C979   1.489       .  S
C625       C1003   1.482       .  S
C626       C1018   1.493       .  S
C637        N655   1.351       .  A
C637        C674   1.487       .  S
C637        C778   1.519       .  S
N638        N655   1.319       .  A
N638        N660   1.318       .  A
N638      Co2727   2.086       .  S
C639        N664   1.362       .  A
C639        C677   1.479       .  S
C639        H684   1.081       .  S
H640        C681   1.075       .  S
C641        N665   1.334       .  A
C641        C645   1.471       .  S
C641        H670   1.082       .  S
Co642      N2712   2.142       .  S
Co642      N2702   2.068       .  S
Co642       N682   2.114       .  S
Co642       N658   2.088       .  S
Co642      Cl686   2.485       .  S
N643        C681   1.357       .  A
N643        N650   1.320       .  A
N643      Co2696   2.129   1_455  S
Co644      N2695   2.125       .  S
Co644      N2699   2.104       .  S
Co644       N664   2.134       .  S
Co644       N651   2.142       .  S
Co644      Cl686   2.479       .  S
C645        N683   1.355       .  A
C645        C760   1.499       .  S
N646        N653   1.319       .  A
N646        N676   1.333       .  A
N646      Co2731   2.126   1_455  S
N647        N665   1.322       .  A
N647        N683   1.335       .  A
N647      Co2696   2.099   1_455  S
N648        C677   1.349       .  A
N648        N658   1.315       .  A
H649        C674   1.079       .  S
N650        N671   1.313       .  A
N650      Co2694   2.071   1_455  S
N651        N669   1.320       .  A
N651        N656   1.340       .  A
C652        N656   1.369       .  A
C652        C680   1.465       .  S
C652        C789   1.507       .  S
N653        C668   1.340       .  A
N653      Co2727   2.090       .  S
C654        N682   1.363       .  A
C654        C657   1.484       .  S
C654        H688   1.082       .  S
C657        N678   1.346       .  A
C657        C771   1.499       .  S
N658        N664   1.324       .  A
N659        C685   1.333       .  A
N659        N661   1.315       .  A
N659       Co675   2.070       .  S
N660        C674   1.366       .  A
N660      Co2694   2.144   1_455  S
N661        N689   1.334       .  A
N661       Co679   2.104       .  S
H662        C685   1.082       .  S
H663        C680   1.082       .  S
N665      Co2731   2.110   1_455  S
N666        N678   1.312       .  A
N666        N682   1.316       .  A
N666       Co675   2.076       .  S
C667        N671   1.348       .  A
C667        C681   1.476       .  S
C668        C687   1.469       .  S
C668        H672   1.082       .  S
N669        C680   1.331       .  A
N669       Co679   2.090       .  S
C673        N689   1.360       .  A
C673        C685   1.454       .  S
Co675      N2690   2.085       .  S
Co675      N2705   2.105       .  S
Co675      Cl686   2.415       .  S
N676        C687   1.362       .  A
Co679      N2698   2.129       .  S
Co679      N2717   2.103       .  S
Co679      Cl686   2.464       .  S
C690        C691   1.408       .  A
C690        C695   1.438       .  A
C691        H696   1.085       .  S
C691        C692   1.391       .  A
C692        C967   1.480       .  S
C692        C693   1.390       .  A
C693        H697   1.085       .  S
C693        C694   1.407       .  A
C694        C860   1.503       .  S
C694        C695   1.440       .  A
C695        H698   1.082       .  S
C699        C700   1.418       .  A
C699        C704   1.406       .  A
C700        H705   1.083       .  S
C700        C701   1.414       .  A
C701        C870   1.483       .  S
C701        C702   1.405       .  A
C702        H706   1.086       .  S
C702        C703   1.391       .  A
C703        C955   1.483       .  S
C703        C704   1.399       .  A
C704        H707   1.084       .  S
C708        C709   1.409       .  A
C708        C713   1.428       .  A
C709        H714   1.084       .  S
C709        C710   1.398       .  A
C710        C943   1.494       .  S
C710        C711   1.407       .  A
C711        H715   1.083       .  S
C711        C712   1.408       .  A
C712        C866   1.511       .  S
C712        C713   1.429       .  A
C713        H716   1.083       .  S
C717        C880   1.513       .  S
C717        C718   1.439       .  A
C717        C722   1.412       .  A
C718        H723   1.082       .  S
C718        C719   1.436       .  A
C719        C720   1.410       .  A
C720        H724   1.085       .  S
C720        C721   1.388       .  A
C721        C934   1.493       .  S
C721        C722   1.401       .  A
C722        H725   1.078       .  S
N726        C730   1.349       .  A
N726        H758   1.045       .  S
N727       C1760   1.355       .  A
N727        C735   1.344       .  A
N728        C732   1.359       .  A
N728        H759   1.039       .  S
N729       C1762   1.355       .  A
N729        C737   1.344       .  A
C730        C738   1.385       .  A
C730        C746   1.399       .  A
C731        C747   1.392   1_554  A
C731        C739   1.390       .  A
C732        C740   1.387       .  A
C732        C749   1.422       .  A
C733        C748   1.420   1_554  A
C733        C741   1.383       .  A
C734       N1753   1.354       .  A
C734        C746   1.404   1_565  A
C734        C742   1.378       .  A
C735        C749   1.419       .  A
C735        C743   1.394       .  A
C736       N1755   1.356       .  A
C736        C744   1.364       .  A
C736        C747   1.403   1_565  A
C737        C745   1.390       .  A
C737        C748   1.417       .  A
C738        H750   1.082   1_545  S
C739        H751   1.083   1_544  S
C740        H752   1.083       .  S
C741        H753   1.082       .  S
C742        H754   1.083       .  S
C742       C1769   1.374       .  A
C743        H755   1.081       .  S
C743       C1768   1.373       .  A
C744        H756   1.071       .  S
C744       C1771   1.361       .  A
C745        H757   1.081       .  S
C745       C1770   1.365       .  A
C746        C958   1.483       .  S
C747        C946   1.504       .  S
C748        C931   1.494       .  S
C749        C970   1.480       .  S
C760        C761   1.436       .  A
C760        C765   1.405       .  A
C761        H766   1.081       .  S
C761        C762   1.439       .  A
C762        C830   1.498       .  S
C762        C763   1.412       .  A
C763        H767   1.085       .  S
C763        C764   1.394       .  A
C764        C919   1.494       .  S
C764        C765   1.381       .  A
C765        H768   1.082       .  S
C769        C845   1.495       .  S
C769        C770   1.431       .  A
C769        C774   1.407       .  A
C770        H775   1.083       .  S
C770        C771   1.427       .  A
C771        C772   1.407       .  A
C772        H776   1.084       .  S
C772        C773   1.382       .  A
C773        C910   1.474       .  S
C773        C774   1.384       .  A
C774        H777   1.082       .  S
C778        C779   1.414       .  A
C778        C783   1.442       .  A
C779        H784   1.083       .  S
C779        C780   1.388       .  A
C780        C898   1.480       .  S
C780        C781   1.386       .  A
C781        H785   1.086       .  S
C781        C782   1.402       .  A
C782        C850   1.511       .  S
C782        C783   1.447       .  A
C783        H786   1.081       .  S
C787        C838   1.492       .  S
C787        C788   1.434       .  A
C787        C792   1.401       .  A
C788        H793   1.082       .  S
C788        C789   1.430       .  A
C789        C790   1.407       .  A
C790        H794   1.084       .  S
C790        C791   1.385       .  A
C791        C883   1.460       .  S
C791        C792   1.379       .  A
C792        H795   1.084       .  S
N796        C801   1.342       .  A
N796       C1826   1.342       .  A
N796        H828   1.034       .  S
N797        C804   1.358       .  A
N797       C2857   1.353       .  A
N798        C803   1.352       .  A
N798       C1828   1.352       .  A
N798        H829   1.032       .  S
N799        C806   1.351       .  A
N799       C2859   1.350       .  A
C800       N1822   1.342       .  A
C800        C808   1.386       .  A
C800        C816   1.404       .  A
C801        C817   1.396       .  A
C801        C809   1.383       .  A
C802       N1824   1.354       .  A
C802        C810   1.386       .  A
C802        C819   1.415       .  A
C803        C818   1.413       .  A
C803        C811   1.386       .  A
C804        C816   1.416       .  A
C804        C812   1.385       .  A
C805       N2849   1.355       .  A
C805        C819   1.417       .  A
C805        C813   1.385       .  A
C806        C814   1.385       .  A
C806        C817   1.407       .  A
C807       N2851   1.351       .  A
C807        C815   1.386       .  A
C807        C818   1.409       .  A
C808        H820   1.082       .  S
C808       C1835   1.381   1_545  A
C809        H821   1.082       .  S
C809       C1834   1.380       .  A
C810        H822   1.080       .  S
C810       C1837   1.373   1_545  A
C811        H823   1.079       .  S
C811       C1836   1.374       .  A
C812        H824   1.074       .  S
C812       C2865   1.357       .  A
C813        H825   1.082       .  S
C813       C2864   1.356       .  A
C814        H826   1.083       .  S
C814       C2867   1.367       .  A
C815        H827   1.082       .  S
C815       C2866   1.364       .  A
C816        C907   1.491       .  S
C817        C886   1.479       .  S
C818        C922   1.477       .  S
C819        C895   1.483       .  S
C830        N848   1.355       .  A
C830        C867   1.474       .  S
N831        N848   1.316       .  A
N831        N853   1.319       .  A
N831      Co1894   2.097       .  S
C832        N857   1.352       .  A
C832        C870   1.479       .  S
C832        H877   1.081       .  S
H833        C874   1.081       .  S
C834        N858   1.338       .  A
C834        C838   1.473       .  S
C834        H863   1.082       .  S
Co835      N1879   2.108   1_545  S
Co835      N1869   2.128   1_545  S
Co835       N875   2.119       .  S
Co835       N851   2.075       .  S
Co835      Cl879   2.438       .  S
N836        C874   1.355       .  A
N836        N843   1.319       .  A
N836      Co1863   2.099       .  S
Co837      N1862   2.097   1_545  S
Co837      N1866   2.098   1_545  S
Co837       N857   2.110       .  S
Co837       N844   2.107       .  S
Co837      Cl879   2.508       .  S
C838        N876   1.357       .  A
N839        N846   1.321       .  A
N839        N869   1.338       .  A
N839       Co872   2.110       .  S
N840        N858   1.320       .  A
N840        N876   1.332       .  A
N840      Co1863   2.099       .  S
N841        C870   1.350       .  A
N841        N851   1.314       .  A
H842        C867   1.081       .  S
N843        N864   1.325       .  A
N843      Co1861   2.131       .  S
N844        N862   1.322       .  A
N844        N849   1.334       .  A
C845        N849   1.359       .  A
C845        C873   1.469       .  S
N846        C861   1.341       .  A
N846      Co1894   2.121       .  S
C847        N875   1.360       .  A
C847        C850   1.476       .  S
C847        H881   1.082       .  S
C850        N871   1.361       .  A
N851        N857   1.316       .  A
N852        C878   1.348       .  A
N852        N854   1.321       .  A
N852       Co868   2.127       .  S
N853        C867   1.357       .  A
N853      Co1861   2.108       .  S
N854        N882   1.336       .  A
N854      Co1898   2.122       .  S
H855        C878   1.080       .  S
H856        C873   1.082       .  S
N858       Co872   2.110       .  S
N859        N871   1.321       .  A
N859        N875   1.317       .  A
N859       Co868   2.108       .  S
C860        N864   1.360       .  A
C860        C874   1.474       .  S
C861        C880   1.474       .  S
C861        H865   1.081       .  S
N862        C873   1.334       .  A
N862      Co1898   2.106       .  S
C866        N882   1.360       .  A
C866        C878   1.475       .  S
Co868      N1857   2.104   1_545  S
Co868      N1872   2.118   1_545  S
Co868      Cl879   2.463       .  S
N869        C880   1.359       .  A
Co872      N1880   2.113       .  S
Co872      N1888   2.098       .  S
Co872     Cl1905   2.435       .  S
Cl879     Co1898   2.443       .  S
C883        C884   1.405       .  A
C883        C888   1.397       .  A
C884        H889   1.084       .  S
C884        C885   1.401       .  A
C885        C886   1.402       .  A
C885        O890   1.371       .  S
C886        C887   1.409       .  A
C887        H891   1.083       .  S
C887        C888   1.389       .  A
C888        O892   1.372       .  S
O890        H894   0.992       .  S
O892        H893   0.991       .  S
C895        C896   1.391       .  A
C895        C900   1.410       .  A
C896        H901   1.085       .  S
C896        C897   1.379       .  A
C897        C898   1.418       .  A
C897        O902   1.369       .  S
C898        C899   1.399       .  A
C899        H903   1.083       .  S
C899        C900   1.405       .  A
C900        O904   1.361       .  S
O902        H906   0.992       .  S
O904        H905   0.991       .  S
C907        C908   1.407       .  A
C907        C912   1.405       .  A
C908        H913   1.077       .  S
C908        C909   1.389       .  A
C909        C910   1.400       .  A
C909        O914   1.373       .  S
C910        C911   1.408       .  A
C911        H915   1.084       .  S
C911        C912   1.407       .  A
C912        O916   1.375       .  S
O914        H918   0.992       .  S
O916        H917   0.992       .  S
C919        C920   1.412       .  A
C919        C924   1.403       .  A
C920        H925   1.070       .  S
C920        C921   1.378       .  A
C921        C922   1.393       .  A
C921        O926   1.374       .  S
C922        C923   1.404       .  A
C923        H927   1.074       .  S
C923        C924   1.410       .  A
C924        O928   1.370       .  S
O926        H930   0.992       .  S
O928        H929   0.992       .  S
C931        C932   1.403       .  A
C931        C936   1.409       .  A
C932        H937   1.083       .  S
C932        C933   1.414       .  A
C933        C934   1.414       .  A
C933        O938   1.371       .  S
C934        C935   1.404       .  A
C935        H939   1.084       .  S
C935        C936   1.392       .  A
C936        O940   1.371       .  S
O938        H942   0.992       .  S
O940        H941   0.991       .  S
C943        C944   1.399       .  A
C943        C948   1.417       .  A
C944        H949   1.084       .  S
C944        C945   1.397       .  A
C945        C946   1.417       .  A
C945        O950   1.371   1_545  S
C946        C947   1.403       .  A
C947        H951   1.083       .  S
C947        C948   1.408       .  A
C948        O952   1.371       .  S
O950        H954   0.992       .  S
O952        H953   0.991       .  S
C955        C956   1.404       .  A
C955        C960   1.413       .  A
C956        H961   1.083       .  S
C956        C957   1.401       .  A
C957        C958   1.414       .  A
C957        O962   1.371   1_545  S
C958        C959   1.393       .  A
C959        H963   1.076       .  S
C959        C960   1.394       .  A
C960        O964   1.371       .  S
O962        H966   0.992       .  S
O964        H965   0.992       .  S
C967        C968   1.406       .  A
C967        C972   1.414       .  A
C968        H973   1.083       .  S
C968        C969   1.410       .  A
C969        C970   1.410       .  A
C969        O974   1.369       .  S
C970        C971   1.393       .  A
C971        H975   1.085       .  S
C971        C972   1.378       .  A
C972        O976   1.372       .  S
O974        H978   0.990       .  S
O976        H977   0.992       .  S
C979        C980   1.407       .  A
C979        C984   1.403       .  A
C980        H985   1.083       .  S
C980        C981   1.399       .  A
C981        C982   1.404       .  A
C981        O986   1.371       .  S
C982        C983   1.407       .  A
C983        H987   1.084       .  S
C983        C984   1.406       .  A
C984        O988   1.371       .  S
O986        H990   0.992       .  S
O988        H989   0.992       .  S
C991        C992   1.396       .  A
C991        C996   1.412       .  A
C992        H997   1.082       .  S
C992        C993   1.397       .  A
C993        C994   1.413       .  A
C993        O998   1.372       .  S
C994        C995   1.402       .  A
C995        H999   1.084       .  S
C995        C996   1.398       .  A
C996       O1000   1.372   1_556  S
O998       H1002   0.992       .  S
O1000      H1001   0.992       .  S
C1003      C1004   1.397       .  A
C1003      C1008   1.409       .  A
C1004      H1009   1.085       .  S
C1004      C1005   1.380       .  A
C1005      C1006   1.409       .  A
C1005      O1010   1.373       .  S
C1006      C1007   1.406       .  A
C1007      H1011   1.083       .  S
C1007      C1008   1.410       .  A
C1008      O1012   1.371       .  S
O1010      H1014   0.992       .  S
O1012      H1013   0.991       .  S
C1015      C1016   1.404       .  A
C1015      C1020   1.409       .  A
C1016      H1021   1.079       .  S
C1016      C1017   1.382       .  A
C1017      C1018   1.402       .  A
C1017      O1022   1.373       .  S
C1018      C1019   1.411       .  A
C1019      H1023   1.077       .  S
C1019      C1020   1.411       .  A
C1020      O1024   1.375       .  S
O1022      H1026   0.991       .  S
O1024      H1025   0.991       .  S
C1027      N1045   1.357       .  A
C1027      C1064   1.465       .  S
C1027      C1212   1.488       .  S
N1028      N1045   1.326       .  A
N1028      N1050   1.319       .  A
N1028     Co1578   2.111   1_554  S
C1029      N1054   1.348       .  A
C1029      C1067   1.470       .  S
C1029      H1074   1.081       .  S
H1030      C1071   1.081       .  S
C1031      N1055   1.333       .  A
C1031      C1035   1.465       .  S
C1031      H1060   1.082       .  S
Co1032     N1563   2.095       .  S
Co1032     N1553   2.107       .  S
Co1032     N1072   2.127       .  S
Co1032     N1048   2.092       .  S
Co1032    Cl1589   2.449       .  S
N1033      C1071   1.357       .  A
N1033      N1040   1.322       .  A
N1033     Co1034   2.107   1_554  S
Co1034     N1037   2.141   1_556  S
Co1034     N1567   2.104       .  S
Co1034     N1554   2.138       .  S
Co1034    Cl1076   2.483       .  S
C1035      N1073   1.362       .  A
C1035      C1203   1.508       .  S
N1036      N1043   1.318       .  A
N1036      N1066   1.331       .  A
N1036     Co1069   2.083   1_554  S
N1037      N1055   1.323       .  A
N1037      N1073   1.341       .  A
N1038      C1067   1.354       .  A
N1038      N1048   1.319       .  A
H1039      C1064   1.082       .  S
N1040      N1061   1.323       .  A
N1040     Co1545   2.119   1_554  S
N1041      N1059   1.314       .  A
N1041      N1046   1.346       .  A
N1041     Co1547   2.149       .  S
C1042      N1046   1.375       .  A
C1042      C1070   1.457       .  S
C1042      C1232   1.516       .  S
N1043      C1058   1.330       .  A
N1043     Co1578   2.075   1_554  S
C1044      N1072   1.358       .  A
C1044      C1047   1.483       .  S
C1044      H1078   1.081       .  S
C1047      N1068   1.351       .  A
C1047      C1221   1.502       .  S
N1048      N1054   1.321       .  A
N1049      C1075   1.335       .  A
N1049      N1051   1.318       .  A
N1049     Co1065   2.077       .  S
N1050      C1064   1.347       .  A
N1050     Co1545   2.091   1_554  S
N1051      N1079   1.335       .  A
N1051     Co1582   2.140       .  S
H1052      C1075   1.082       .  S
H1053      C1070   1.073       .  S
N1054     Co1547   2.105       .  S
N1055     Co1069   2.090   1_554  S
N1056      N1068   1.323       .  A
N1056      N1072   1.316       .  A
N1056     Co1065   2.081       .  S
C1057      N1061   1.354       .  A
C1057      C1071   1.473       .  S
C1057      C1089   1.505       .  S
C1058      C1077   1.459       .  S
C1058      H1062   1.082       .  S
N1059      C1070   1.308       .  A
N1059     Co1582   2.042       .  S
C1063      N1079   1.367       .  A
C1063      C1075   1.466       .  S
C1063      C1100   1.494       .  S
Co1065     N1541   2.108       .  S
Co1065     N1556   2.090       .  S
Co1065    Cl1589   2.441       .  S
N1066      C1077   1.353       .  A
C1067      C1109   1.479       .  S
Co1069     N1564   2.146       .  S
Co1069     N1572   2.051       .  S
Co1069    Cl1076   2.466       .  S
Cl1076    Co1545   2.445       .  S
Cl1076    Co1578   2.432       .  S
C1077      C1080   1.479       .  S
C1080      C1081   1.408       .  A
C1080      C1085   1.423       .  A
C1081      H1086   1.082       .  S
C1081      C1082   1.385       .  A
C1082      C1528   1.483       .  S
C1082      C1083   1.392       .  A
C1083      H1087   1.083       .  S
C1083      C1084   1.410       .  A
C1084      C1180   1.490       .  S
C1084      C1085   1.420       .  A
C1085      H1088   1.083       .  S
C1089      C1090   1.433       .  A
C1089      C1094   1.411       .  A
C1090      H1095   1.082       .  S
C1090      C1091   1.431       .  A
C1091      C1190   1.503       .  S
C1091      C1092   1.406       .  A
C1092      H1096   1.086       .  S
C1092      C1093   1.388       .  A
C1093      C1519   1.475       .  S
C1093      C1094   1.394       .  A
C1094      H1097   1.084       .  S
C1098      C1200   1.498       .  S
C1098      C1099   1.427       .  A
C1098      C1103   1.408       .  A
C1099      H1104   1.082       .  S
C1099      C1100   1.427       .  A
C1100      C1101   1.398       .  A
C1101      H1105   1.086       .  S
C1101      C1102   1.391       .  A
C1102      C1507   1.478       .  S
C1102      C1103   1.396       .  A
C1103      H1106   1.084       .  S
C1107      C1186   1.489       .  S
C1107      C1108   1.417       .  A
C1107      C1112   1.411       .  A
C1108      H1113   1.083       .  S
C1108      C1109   1.414       .  A
C1109      C1110   1.401       .  A
C1110      H1114   1.086       .  S
C1110      C1111   1.386       .  A
C1111      C1495   1.473       .  S
C1111      C1112   1.401       .  A
C1112      H1115   1.084       .  S
N1116      C1121   1.349       .  A
N1116      C3172   1.344       .  A
N1116      H1148   1.043       .  S
N1117      C1637   1.354       .  A
N1117      C1125   1.345       .  A
N1118      C1123   1.364       .  A
N1118      C3174   1.366       .  A
N1118      H1149   1.037       .  S
N1119      C1639   1.354       .  A
N1119      C1127   1.341       .  A
C1120      N3168   1.345   1_455  A
C1120      C1128   1.379       .  A
C1120      C1136   1.398       .  A
C1121      C1137   1.403       .  A
C1121      C1129   1.386       .  A
C1122      N3170   1.365   1_455  A
C1122      C1130   1.386       .  A
C1122      C1139   1.428       .  A
C1123      C1138   1.433       .  A
C1123      C1131   1.387       .  A
C1124      N1630   1.355       .  A
C1124      C1136   1.408       .  A
C1124      C1132   1.379       .  A
C1125      C1139   1.421       .  A
C1125      C1133   1.394       .  A
C1126      N1632   1.353       .  A
C1126      C1134   1.376       .  A
C1126      C1137   1.400       .  A
C1127      C1135   1.399       .  A
C1127      C1138   1.421       .  A
C1128      H1140   1.071       .  S
C1128      C3181   1.368   1_455  A
C1129      H1141   1.083       .  S
C1129      C3180   1.367       .  A
C1130      H1142   1.083       .  S
C1130      C3183   1.372   1_455  A
C1131      H1143   1.083       .  S
C1131      C3182   1.373       .  A
C1132      H1144   1.081       .  S
C1132      C1646   1.372       .  A
C1133      H1145   1.082       .  S
C1133      C1645   1.372       .  A
C1134      H1146   1.082       .  S
C1134      C1648   1.373       .  A
C1135      H1147   1.080       .  S
C1135      C1647   1.374       .  A
C1136      C1504   1.484       .  S
C1137      C1492   1.482       .  S
C1138      C1516   1.483       .  S
C1139      C1531   1.493       .  S
C1150      N1168   1.353       .  A
C1150      C1187   1.487       .  S
C1150      C1291   1.522       .  S
N1151      N1168   1.321       .  A
N1151      N1173   1.318       .  A
N1151     Co3240   2.090       .  S
C1152      N1177   1.362       .  A
C1152      C1190   1.478       .  S
C1152      H1197   1.081       .  S
H1153      C1194   1.075       .  S
C1154      N1178   1.331       .  A
C1154      C1158   1.466       .  S
C1154      H1183   1.082       .  S
Co1155     N3225   2.136       .  S
Co1155     N3215   2.074       .  S
Co1155     N1195   2.112       .  S
Co1155     N1171   2.092       .  S
Co1155    Cl1199   2.488       .  S
N1156      C1194   1.355       .  A
N1156      N1163   1.319       .  A
N1156     Co3209   2.124   1_455  S
Co1157     N3208   2.128       .  S
Co1157     N3212   2.098       .  S
Co1157     N1177   2.134       .  S
Co1157     N1164   2.135       .  S
Co1157    Cl1199   2.473       .  S
C1158      N1196   1.356       .  A
C1158      C1273   1.494       .  S
N1159      N1166   1.317       .  A
N1159      N1189   1.335       .  A
N1159     Co3244   2.127   1_455  S
N1160      N1178   1.322       .  A
N1160      N1196   1.335       .  A
N1160     Co3209   2.104   1_455  S
N1161      C1190   1.351       .  A
N1161      N1171   1.317       .  A
H1162      C1187   1.078       .  S
N1163      N1184   1.311       .  A
N1163     Co3207   2.063   1_455  S
N1164      N1182   1.321       .  A
N1164      N1169   1.337       .  A
C1165      N1169   1.365       .  A
C1165      C1193   1.466       .  S
C1165      C1302   1.502       .  S
N1166      C1181   1.340       .  A
N1166     Co3240   2.089       .  S
C1167      N1195   1.361       .  A
C1167      C1170   1.482       .  S
C1167      H1201   1.082       .  S
C1170      N1191   1.345       .  A
C1170      C1284   1.493       .  S
N1171      N1177   1.323       .  A
N1172      C1198   1.340       .  A
N1172      N1174   1.316       .  A
N1172     Co1188   2.086       .  S
N1173      C1187   1.366       .  A
N1173     Co3207   2.148   1_455  S
N1174      N1202   1.332       .  A
N1174     Co1192   2.099       .  S
H1175      C1198   1.082       .  S
H1176      C1193   1.082       .  S
N1178     Co3244   2.095   1_455  S
N1179      N1191   1.310       .  A
N1179      N1195   1.317       .  A
N1179     Co1188   2.069       .  S
C1180      N1184   1.347       .  A
C1180      C1194   1.475       .  S
C1181      C1200   1.469       .  S
C1181      H1185   1.082       .  S
N1182      C1193   1.332       .  A
N1182     Co1192   2.089       .  S
C1186      N1202   1.357       .  A
C1186      C1198   1.461       .  S
Co1188     N3203   2.091       .  S
Co1188     N3218   2.099       .  S
Co1188    Cl1199   2.422       .  S
N1189      C1200   1.364       .  A
Co1192     N3211   2.127       .  S
Co1192     N3230   2.093       .  S
Co1192    Cl1199   2.461       .  S
C1203      C1204   1.408       .  A
C1203      C1208   1.435       .  A
C1204      H1209   1.084       .  S
C1204      C1205   1.391       .  A
C1205      C1480   1.482       .  S
C1205      C1206   1.391       .  A
C1206      H1210   1.085       .  S
C1206      C1207   1.407       .  A
C1207      C1373   1.501       .  S
C1207      C1208   1.437       .  A
C1208      H1211   1.082       .  S
C1212      C1213   1.422       .  A
C1212      C1217   1.407       .  A
C1213      H1218   1.083       .  S
C1213      C1214   1.419       .  A
C1214      C1383   1.489       .  S
C1214      C1215   1.403       .  A
C1215      H1219   1.086       .  S
C1215      C1216   1.391       .  A
C1216      C1468   1.482       .  S
C1216      C1217   1.400       .  A
C1217      H1220   1.084       .  S
C1221      C1222   1.408       .  A
C1221      C1226   1.425       .  A
C1222      H1227   1.084       .  S
C1222      C1223   1.399       .  A
C1223      C1456   1.491       .  S
C1223      C1224   1.407       .  A
C1224      H1228   1.083       .  S
C1224      C1225   1.408       .  A
C1225      C1379   1.506       .  S
C1225      C1226   1.426       .  A
C1226      H1229   1.083       .  S
C1230      C1393   1.512       .  S
C1230      C1231   1.438       .  A
C1230      C1235   1.413       .  A
C1231      H1236   1.082       .  S
C1231      C1232   1.435       .  A
C1232      C1233   1.412       .  A
C1233      H1237   1.084       .  S
C1233      C1234   1.389       .  A
C1234      C1447   1.496       .  S
C1234      C1235   1.400       .  A
C1235      H1238   1.077       .  S
N1239      C1757   1.336       .  A
N1239      C1243   1.350       .  A
N1239      H1271   1.045       .  S
N1240      C1248   1.342       .  A
N1241      C1759   1.360       .  A
N1241      C1245   1.360       .  A
N1241      H1272   1.039       .  S
N1242      C1250   1.344       .  A
C1243      C1251   1.384       .  A
C1243      C1259   1.399       .  A
C1244      N1752   1.336       .  A
C1244      C1260   1.394       .  A
C1244      C1252   1.389       .  A
C1245      C1253   1.387       .  A
C1245      C1262   1.422       .  A
C1246      N1754   1.361       .  A
C1246      C1261   1.419       .  A
C1246      C1254   1.383       .  A
C1247      C1259   1.404       .  A
C1247      C1255   1.378       .  A
C1248      C1262   1.417       .  A
C1248      C1256   1.393       .  A
C1249      C1257   1.368       .  A
C1249      C1260   1.402       .  A
C1250      C1258   1.389       .  A
C1250      C1261   1.416       .  A
C1251      H1263   1.082       .  S
C1251      C1765   1.367       .  A
C1252      H1264   1.083       .  S
C1252      C1764   1.371       .  A
C1253      H1265   1.083       .  S
C1253      C1767   1.375       .  A
C1254      H1266   1.082       .  S
C1254      C1766   1.375       .  A
C1255      H1267   1.083       .  S
C1256      H1268   1.082       .  S
C1257      H1269   1.075       .  S
C1258      H1270   1.081       .  S
C1259      C1471   1.481       .  S
C1260      C1459   1.501       .  S
C1261      C1444   1.494       .  S
C1262      C1483   1.480       .  S
C1273      C1274   1.431       .  A
C1273      C1278   1.407       .  A
C1274      H1279   1.081       .  S
C1274      C1275   1.434       .  A
C1275      C1343   1.490       .  S
C1275      C1276   1.412       .  A
C1276      H1280   1.085       .  S
C1276      C1277   1.392       .  A
C1277      C1432   1.493       .  S
C1277      C1278   1.383       .  A
C1278      H1281   1.083       .  S
C1282      C1358   1.490       .  S
C1282      C1283   1.429       .  A
C1282      C1287   1.408       .  A
C1283      H1288   1.083       .  S
C1283      C1284   1.423       .  A
C1284      C1285   1.406       .  A
C1285      H1289   1.085       .  S
C1285      C1286   1.380       .  A
C1286      C1423   1.471       .  S
C1286      C1287   1.383       .  A
C1287      H1290   1.082       .  S
C1291      C1292   1.414       .  A
C1291      C1296   1.444       .  A
C1292      H1297   1.083       .  S
C1292      C1293   1.389       .  A
C1293      C1411   1.482       .  S
C1293      C1294   1.386       .  A
C1294      H1298   1.086       .  S
C1294      C1295   1.403       .  A
C1295      C1363   1.514       .  S
C1295      C1296   1.449       .  A
C1296      H1299   1.081       .  S
C1300      C1351   1.494       .  S
C1300      C1301   1.431       .  A
C1300      C1305   1.402       .  A
C1301      H1306   1.082       .  S
C1301      C1302   1.429       .  A
C1302      C1303   1.405       .  A
C1303      H1307   1.084       .  S
C1303      C1304   1.387       .  A
C1304      C1396   1.463       .  S
C1304      C1305   1.383       .  A
C1305      H1308   1.084       .  S
N1309      C1314   1.352   1_545  A
N1309      H1341   1.031       .  S
N1310      C1317   1.356       .  A
N1310      C3370   1.354       .  A
N1311      C1316   1.352   1_545  A
N1311      H1342   1.033       .  S
N1312      C1319   1.348       .  A
N1312      C3372   1.347       .  A
C1313      C1321   1.388       .  A
C1313      C1329   1.412       .  A
C1314      C1330   1.408       .  A
C1314      C1322   1.385       .  A
C1315      C1323   1.387       .  A
C1315      C1332   1.415       .  A
C1316      C1331   1.414       .  A
C1316      C1324   1.384       .  A
C1317      C1329   1.420       .  A
C1317      C1325   1.388       .  A
C1318      N3362   1.355       .  A
C1318      C1332   1.418       .  A
C1318      C1326   1.384       .  A
C1319      C1327   1.387       .  A
C1319      C1330   1.407       .  A
C1320      N3364   1.349       .  A
C1320      C1328   1.386       .  A
C1320      C1331   1.409       .  A
C1321      H1333   1.083       .  S
C1322      H1334   1.082       .  S
C1323      H1335   1.080       .  S
C1324      H1336   1.076       .  S
C1325      H1337   1.074       .  S
C1325      C3378   1.358       .  A
C1326      H1338   1.082       .  S
C1326      C3377   1.357       .  A
C1327      H1339   1.083       .  S
C1327      C3380   1.370       .  A
C1328      H1340   1.082       .  S
C1328      C3379   1.369       .  A
C1329      C1420   1.490       .  S
C1330      C1399   1.485       .  S
C1331      C1435   1.476       .  S
C1332      C1408   1.483       .  S
C1343      N1361   1.354       .  A
C1343      C1380   1.470       .  S
N1344      N1361   1.317       .  A
N1344      N1366   1.319       .  A
C1345      N1370   1.355       .  A
C1345      C1383   1.481       .  S
C1345      H1390   1.080       .  S
H1346      C1387   1.081       .  S
C1347      N1371   1.340       .  A
C1347      C1351   1.473       .  S
C1347      H1376   1.082       .  S
Co1348     N1388   2.131       .  S
Co1348     N1364   2.075       .  S
Co1348    Cl1392   2.437       .  S
N1349      C1387   1.355       .  A
N1349      N1356   1.319       .  A
Co1350     N1370   2.121       .  S
Co1350     N1357   2.102       .  S
Co1350    Cl1392   2.511       .  S
C1351      N1389   1.357       .  A
N1352      N1359   1.322       .  A
N1352      N1382   1.338       .  A
N1352     Co1385   2.113   1_565  S
N1353      N1371   1.322       .  A
N1353      N1389   1.333       .  A
N1354      C1383   1.351       .  A
N1354      N1364   1.316       .  A
H1355      C1380   1.081       .  S
N1356      N1377   1.325       .  A
N1357      N1375   1.322       .  A
N1357      N1362   1.333       .  A
C1358      N1362   1.358       .  A
C1358      C1386   1.468       .  S
N1359      C1374   1.341       .  A
C1360      N1388   1.362       .  A
C1360      C1363   1.480       .  S
C1360      H1394   1.082       .  S
C1363      N1384   1.361       .  A
N1364      N1370   1.316       .  A
N1365      C1391   1.348       .  A
N1365      N1367   1.320       .  A
N1365     Co1381   2.122       .  S
N1366      C1380   1.355       .  A
N1367      N1395   1.334       .  A
H1368      C1391   1.080       .  S
H1369      C1386   1.082       .  S
N1371     Co1385   2.115   1_565  S
N1372      N1384   1.323       .  A
N1372      N1388   1.319       .  A
N1372     Co1381   2.113       .  S
C1373      N1377   1.359       .  A
C1373      C1387   1.472       .  S
C1374      C1393   1.472       .  S
C1374      H1378   1.081       .  S
N1375      C1386   1.333       .  A
C1379      N1395   1.358       .  A
C1379      C1391   1.475       .  S
Co1381    Cl1392   2.468       .  S
N1382      C1393   1.359       .  A
C1396      C1397   1.406       .  A
C1396      C1401   1.399       .  A
C1397      H1402   1.084       .  S
C1397      C1398   1.401       .  A
C1398      C1399   1.403       .  A
C1398      O1403   1.371       .  S
C1399      C1400   1.409       .  A
C1400      H1404   1.084       .  S
C1400      C1401   1.390       .  A
C1401      O1405   1.373       .  S
O1403      H1407   0.992       .  S
O1405      H1406   0.991       .  S
C1408      C1409   1.391       .  A
C1408      C1413   1.409       .  A
C1409      H1414   1.085       .  S
C1409      C1410   1.381       .  A
C1410      C1411   1.419       .  A
C1410      O1415   1.368       .  S
C1411      C1412   1.399       .  A
C1412      H1416   1.083       .  S
C1412      C1413   1.406       .  A
C1413      O1417   1.362       .  S
O1415      H1419   0.992       .  S
O1417      H1418   0.991       .  S
C1420      C1421   1.408       .  A
C1420      C1425   1.404       .  A
C1421      H1426   1.080       .  S
C1421      C1422   1.389       .  A
C1422      C1423   1.399       .  A
C1422      O1427   1.372       .  S
C1423      C1424   1.408       .  A
C1424      H1428   1.084       .  S
C1424      C1425   1.406       .  A
C1425      O1429   1.375       .  S
O1427      H1431   0.992       .  S
O1429      H1430   0.992       .  S
C1432      C1433   1.413       .  A
C1432      C1437   1.402       .  A
C1433      H1438   1.072       .  S
C1433      C1434   1.381       .  A
C1434      C1435   1.394       .  A
C1434      O1439   1.374       .  S
C1435      C1436   1.401       .  A
C1436      H1440   1.073       .  S
C1436      C1437   1.409       .  A
C1437      O1441   1.369       .  S
O1439      H1443   0.992       .  S
O1441      H1442   0.992       .  S
C1444      C1445   1.402       .  A
C1444      C1449   1.409       .  A
C1445      H1450   1.083       .  S
C1445      C1446   1.414       .  A
C1446      C1447   1.414       .  A
C1446      O1451   1.370       .  S
C1447      C1448   1.406       .  A
C1448      H1452   1.084       .  S
C1448      C1449   1.395       .  A
C1449      O1453   1.371       .  S
O1451      H1455   0.992       .  S
O1453      H1454   0.992       .  S
C1456      C1457   1.401       .  A
C1456      C1461   1.414       .  A
C1457      H1462   1.084       .  S
C1457      C1458   1.401       .  A
C1458      C1459   1.416       .  A
C1458      O1463   1.371       .  S
C1459      C1460   1.400       .  A
C1460      H1464   1.080       .  S
C1460      C1461   1.403       .  A
C1461      O1465   1.370       .  S
O1463      H1467   0.991       .  S
O1465      H1466   0.990       .  S
C1468      C1469   1.404       .  A
C1468      C1473   1.412       .  A
C1469      H1474   1.083       .  S
C1469      C1470   1.400       .  A
C1470      C1471   1.414       .  A
C1470      O1475   1.371       .  S
C1471      C1472   1.393       .  A
C1472      H1476   1.075       .  S
C1472      C1473   1.394       .  A
C1473      O1477   1.370       .  S
O1475      H1479   0.992       .  S
O1477      H1478   0.992       .  S
C1480      C1481   1.406       .  A
C1480      C1485   1.415       .  A
C1481      H1486   1.083       .  S
C1481      C1482   1.410       .  A
C1482      C1483   1.408       .  A
C1482      O1487   1.368       .  S
C1483      C1484   1.391       .  A
C1484      H1488   1.084       .  S
C1484      C1485   1.378       .  A
C1485      O1489   1.371       .  S
O1487      H1491   0.991       .  S
O1489      H1490   0.992       .  S
C1492      C1493   1.409       .  A
C1492      C1497   1.400       .  A
C1493      H1498   1.084       .  S
C1493      C1494   1.401       .  A
C1494      C1495   1.406       .  A
C1494      O1499   1.372       .  S
C1495      C1496   1.404       .  A
C1496      H1500   1.084       .  S
C1496      C1497   1.398       .  A
C1497      O1501   1.371       .  S
O1499      H1503   0.992       .  S
O1501      H1502   0.991       .  S
C1504      C1505   1.397       .  A
C1504      C1509   1.410       .  A
C1505      H1510   1.079       .  S
C1505      C1506   1.399       .  A
C1506      C1507   1.412       .  A
C1506      O1511   1.372       .  S
C1507      C1508   1.401       .  A
C1508      H1512   1.084       .  S
C1508      C1509   1.397       .  A
C1509      O1513   1.369       .  S
O1511      H1515   0.992       .  S
O1513      H1514   0.992       .  S
C1516      C1517   1.397       .  A
C1516      C1521   1.412       .  A
C1517      H1522   1.085       .  S
C1517      C1518   1.378       .  A
C1518      C1519   1.408       .  A
C1518      O1523   1.374       .  S
C1519      C1520   1.407       .  A
C1520      H1524   1.083       .  S
C1520      C1521   1.412       .  A
C1521      O1525   1.371       .  S
O1523      H1527   0.991       .  S
O1525      H1526   0.991       .  S
C1528      C1529   1.405       .  A
C1528      C1533   1.405       .  A
C1529      H1534   1.080       .  S
C1529      C1530   1.386       .  A
C1530      C1531   1.403       .  A
C1530      O1535   1.373       .  S
C1531      C1532   1.409       .  A
C1532      H1536   1.078       .  S
C1532      C1533   1.410       .  A
C1533      O1537   1.371       .  S
O1535      H1539   0.991       .  S
O1537      H1538   0.991       .  S
C1540      N1558   1.357       .  A
C1540      C1577   1.463       .  S
C1540      C1725   1.486       .  S
N1541      N1558   1.327       .  A
N1541      N1563   1.320       .  A
C1542      N1567   1.348       .  A
C1542      C1580   1.474       .  S
C1542      H1587   1.081       .  S
H1543      C1584   1.081       .  S
C1544      N1568   1.332       .  A
C1544      C1548   1.462       .  S
C1544      H1573   1.082       .  S
Co1545     N1585   2.126       .  S
Co1545     N1561   2.081       .  S
N1546      C1584   1.357       .  A
N1546      N1553   1.322       .  A
N1546     Co1547   2.113       .  S
Co1547     N1550   2.150       .  S
Co1547    Cl1589   2.479       .  S
C1548      N1586   1.364       .  A
C1548      C1716   1.508       .  S
N1549      N1556   1.318       .  A
N1549      N1579   1.331       .  A
N1549     Co1582   2.075       .  S
N1550      N1568   1.322       .  A
N1550      N1586   1.341       .  A
N1551      C1580   1.351       .  A
N1551      N1561   1.316       .  A
H1552      C1577   1.082       .  S
N1553      N1574   1.321       .  A
N1554      N1572   1.315       .  A
N1554      N1559   1.344       .  A
C1555      N1559   1.371       .  A
C1555      C1583   1.461       .  S
C1555      C1745   1.513       .  S
N1556      C1571   1.333       .  A
C1557      N1585   1.358       .  A
C1557      C1560   1.484       .  S
C1557      H1591   1.082       .  S
C1560      N1581   1.349       .  A
C1560      C1734   1.500       .  S
N1561      N1567   1.319       .  A
N1562      C1588   1.335       .  A
N1562      N1564   1.318       .  A
N1562     Co1578   2.078       .  S
N1563      C1577   1.345       .  A
N1564      N1592   1.337       .  A
H1565      C1588   1.082       .  S
H1566      C1583   1.072       .  S
N1568     Co1582   2.079       .  S
N1569      N1581   1.321       .  A
N1569      N1585   1.314       .  A
N1569     Co1578   2.070       .  S
C1570      N1574   1.352       .  A
C1570      C1584   1.474       .  S
C1570      C1602   1.502       .  S
C1571      C1590   1.463       .  S
C1571      H1575   1.082       .  S
N1572      C1583   1.309       .  A
C1576      N1592   1.369       .  A
C1576      C1588   1.462       .  S
C1576      C1613   1.498       .  S
N1579      C1590   1.352       .  A
C1580      C1622   1.476       .  S
Co1582    Cl1589   2.466       .  S
C1590      C1593   1.482       .  S
C1593      C1594   1.407       .  A
C1593      C1598   1.424       .  A
C1594      H1599   1.083       .  S
C1594      C1595   1.386       .  A
C1595      C2041   1.482       .  S
C1595      C1596   1.393       .  A
C1596      H1600   1.084       .  S
C1596      C1597   1.410       .  A
C1597      C1693   1.490       .  S
C1597      C1598   1.421       .  A
C1598      H1601   1.083       .  S
C1602      C1603   1.431       .  A
C1602      C1607   1.413       .  A
C1603      H1608   1.082       .  S
C1603      C1604   1.428       .  A
C1604      C1703   1.500       .  S
C1604      C1605   1.407       .  A
C1605      H1609   1.086       .  S
C1605      C1606   1.386       .  A
C1606      C2032   1.476       .  S
C1606      C1607   1.393       .  A
C1607      H1610   1.084       .  S
C1611      C1713   1.498       .  S
C1611      C1612   1.428       .  A
C1611      C1616   1.405       .  A
C1612      H1617   1.082       .  S
C1612      C1613   1.429       .  A
C1613      C1614   1.400       .  A
C1614      H1618   1.086       .  S
C1614      C1615   1.391       .  A
C1615      C2020   1.471       .  S
C1615      C1616   1.393       .  A
C1616      H1619   1.084       .  S
C1620      C1699   1.484       .  S
C1620      C1621   1.416       .  A
C1620      C1625   1.414       .  A
C1621      H1626   1.083       .  S
C1621      C1622   1.412       .  A
C1622      C1623   1.403       .  A
C1623      H1627   1.086       .  S
C1623      C1624   1.384       .  A
C1624      C2008   1.478       .  S
C1624      C1625   1.398       .  A
C1625      H1628   1.083       .  S
N1629      C1634   1.348       .  A
N1629      C3685   1.346       .  A
N1629      H1661   1.043       .  S
N1630      C1638   1.345       .  A
N1631      C1636   1.363       .  A
N1631      C3687   1.364       .  A
N1631      H1662   1.038       .  S
N1632      C1640   1.340       .  A
C1633      N3681   1.344   1_455  A
C1633      C1641   1.374       .  A
C1633      C1649   1.395       .  A
C1634      C1650   1.400       .  A
C1634      C1642   1.386       .  A
C1635      N3683   1.365       .  A
C1635      C1643   1.387       .  A
C1635      C1652   1.429       .  A
C1636      C1651   1.429       .  A
C1636      C1644   1.385       .  A
C1637      C1649   1.408   1_554  A
C1637      C1645   1.379       .  A
C1638      C1652   1.422       .  A
C1638      C1646   1.394       .  A
C1639      C1647   1.375       .  A
C1639      C1650   1.401   1_554  A
C1640      C1648   1.397       .  A
C1640      C1651   1.418       .  A
C1641      H1653   1.065       .  S
C1641      C3694   1.366   1_455  A
C1642      H1654   1.083       .  S
C1642      C3693   1.366       .  A
C1643      H1655   1.083       .  S
C1643      C3696   1.373   1_455  A
C1644      H1656   1.083       .  S
C1644      C3695   1.375       .  A
C1645      H1657   1.081   1_554  S
C1646      H1658   1.080       .  S
C1647      H1659   1.082       .  S
C1648      H1660   1.080       .  S
C1649      C2017   1.476       .  S
C1650      C2005   1.485       .  S
C1651      C2029   1.484       .  S
C1652      C2044   1.493       .  S
C1663      N1681   1.350       .  A
C1663      C1700   1.487       .  S
C1663      C1804   1.517       .  S
N1664      N1681   1.319       .  A
N1664      N1686   1.318       .  A
N1664     Co3753   2.080       .  S
C1665      N1690   1.363       .  A
C1665      C1703   1.480       .  S
C1665      H1710   1.081       .  S
H1666      C1707   1.075       .  S
C1667      N1691   1.334       .  A
C1667      C1671   1.470       .  S
C1667      H1696   1.082       .  S
Co1668     N3738   2.138       .  S
Co1668     N3728   2.066       .  S
Co1668     N1708   2.115       .  S
Co1668     N1684   2.082       .  S
Co1668    Cl1712   2.482       .  S
N1669      C1707   1.355       .  A
N1669      N1676   1.320       .  A
N1669     Co3722   2.123   1_455  S
Co1670     N3721   2.120       .  S
Co1670     N3725   2.108       .  S
Co1670     N1690   2.137       .  S
Co1670     N1677   2.131       .  S
Co1670    Cl1712   2.477       .  S
C1671      N1709   1.355       .  A
C1671      C1786   1.499       .  S
N1672      N1679   1.317       .  A
N1672      N1702   1.334       .  A
N1672     Co3757   2.125   1_455  S
N1673      N1691   1.322       .  A
N1673      N1709   1.335       .  A
N1673     Co3722   2.105   1_455  S
N1674      C1703   1.348       .  A
N1674      N1684   1.314       .  A
H1675      C1700   1.078       .  S
N1676      N1697   1.313       .  A
N1676     Co3720   2.069   1_455  S
N1677      N1695   1.320       .  A
N1677      N1682   1.338       .  A
C1678      N1682   1.366       .  A
C1678      C1706   1.466       .  S
C1678      C1815   1.504       .  S
N1679      C1694   1.340       .  A
N1679     Co3753   2.089       .  S
C1680      N1708   1.364       .  A
C1680      C1683   1.485       .  S
C1680      H1714   1.082       .  S
C1683      N1704   1.342       .  A
C1683      C1797   1.496       .  S
N1684      N1690   1.324       .  A
N1685      C1711   1.335       .  A
N1685      N1687   1.316       .  A
N1685     Co1701   2.076       .  S
N1686      C1700   1.366       .  A
N1686     Co3720   2.148   1_455  S
N1687      N1715   1.332       .  A
N1687     Co1705   2.101       .  S
H1688      C1711   1.082       .  S
H1689      C1706   1.082       .  S
N1691     Co3757   2.105   1_455  S
N1692      N1704   1.309       .  A
N1692      N1708   1.315       .  A
N1692     Co1701   2.060       .  S
C1693      N1697   1.348       .  A
C1693      C1707   1.473       .  S
C1694      C1713   1.470       .  S
C1694      H1698   1.082       .  S
N1695      C1706   1.331       .  A
N1695     Co1705   2.091       .  S
C1699      N1715   1.359       .  A
C1699      C1711   1.455       .  S
Co1701     N3716   2.087       .  S
Co1701     N3731   2.092       .  S
Co1701    Cl1712   2.419       .  S
N1702      C1713   1.362       .  A
Co1705     N3724   2.133       .  S
Co1705     N3743   2.105       .  S
Co1705    Cl1712   2.462       .  S
C1716      C1717   1.409       .  A
C1716      C1721   1.434       .  A
C1717      H1722   1.084       .  S
C1717      C1718   1.392       .  A
C1718      C1993   1.478       .  S
C1718      C1719   1.390       .  A
C1719      H1723   1.085       .  S
C1719      C1720   1.406       .  A
C1720      C1886   1.499       .  S
C1720      C1721   1.436       .  A
C1721      H1724   1.082       .  S
C1725      C1726   1.419       .  A
C1725      C1730   1.408       .  A
C1726      H1731   1.083       .  S
C1726      C1727   1.414       .  A
C1727      C1896   1.486       .  S
C1727      C1728   1.405       .  A
C1728      H1732   1.086       .  S
C1728      C1729   1.393       .  A
C1729      C1981   1.486       .  S
C1729      C1730   1.402       .  A
C1730      H1733   1.084       .  S
C1734      C1735   1.411       .  A
C1734      C1739   1.422       .  A
C1735      H1740   1.083       .  S
C1735      C1736   1.400       .  A
C1736      C1969   1.499       .  S
C1736      C1737   1.407       .  A
C1737      H1741   1.079       .  S
C1737      C1738   1.407       .  A
C1738      C1892   1.503       .  S
C1738      C1739   1.424       .  A
C1739      H1742   1.083       .  S
C1743      C1906   1.512       .  S
C1743      C1744   1.439       .  A
C1743      C1748   1.412       .  A
C1744      H1749   1.082       .  S
C1744      C1745   1.436       .  A
C1745      C1746   1.408       .  A
C1746      H1750   1.085       .  S
C1746      C1747   1.387       .  A
C1747      C1960   1.490       .  S
C1747      C1748   1.400       .  A
C1748      H1751   1.078       .  S
N1752      C1756   1.349       .  A
N1752      H1784   1.044       .  S
N1753      C1761   1.341       .  A
N1754      C1758   1.359       .  A
N1754      H1785   1.037       .  S
N1755      C1763   1.343       .  A
C1756      C1764   1.386       .  A
C1756      C1772   1.401       .  A
C1757      C1773   1.394   1_554  A
C1757      C1765   1.390       .  A
C1758      C1766   1.389       .  A
C1758      C1775   1.427       .  A
C1759      C1774   1.417   1_554  A
C1759      C1767   1.384       .  A
C1760      C1772   1.406       .  A
C1760      C1768   1.379       .  A
C1761      C1775   1.420       .  A
C1761      C1769   1.396       .  A
C1762      C1770   1.361       .  A
C1762      C1773   1.402       .  A
C1763      C1771   1.390       .  A
C1763      C1774   1.418       .  A
C1764      H1776   1.082       .  S
C1765      H1777   1.083       .  S
C1766      H1778   1.083       .  S
C1767      H1779   1.082       .  S
C1768      H1780   1.082       .  S
C1769      H1781   1.081       .  S
C1770      H1782   1.067       .  S
C1771      H1783   1.080       .  S
C1772      C1984   1.486       .  S
C1773      C1972   1.507       .  S
C1774      C1957   1.488       .  S
C1775      C1996   1.477       .  S
C1786      C1787   1.436       .  A
C1786      C1791   1.405       .  A
C1787      H1792   1.080       .  S
C1787      C1788   1.439       .  A
C1788      C1856   1.499       .  S
C1788      C1789   1.412       .  A
C1789      H1793   1.085       .  S
C1789      C1790   1.395       .  A
C1790      C1945   1.493       .  S
C1790      C1791   1.383       .  A
C1791      H1794   1.083       .  S
C1795      C1871   1.493       .  S
C1795      C1796   1.429       .  A
C1795      C1800   1.409       .  A
C1796      H1801   1.083       .  S
C1796      C1797   1.424       .  A
C1797      C1798   1.409       .  A
C1798      H1802   1.084       .  S
C1798      C1799   1.383       .  A
C1799      C1936   1.476       .  S
C1799      C1800   1.382       .  A
C1800      H1803   1.081       .  S
C1804      C1805   1.415       .  A
C1804      C1809   1.441       .  A
C1805      H1810   1.083       .  S
C1805      C1806   1.388       .  A
C1806      C1924   1.481       .  S
C1806      C1807   1.384       .  A
C1807      H1811   1.086       .  S
C1807      C1808   1.402       .  A
C1808      C1876   1.507       .  S
C1808      C1809   1.445       .  A
C1809      H1812   1.081       .  S
C1813      C1864   1.493       .  S
C1813      C1814   1.433       .  A
C1813      C1818   1.402       .  A
C1814      H1819   1.082       .  S
C1814      C1815   1.430       .  A
C1815      C1816   1.406       .  A
C1816      H1820   1.084       .  S
C1816      C1817   1.385       .  A
C1817      C1909   1.461       .  S
C1817      C1818   1.380       .  A
C1818      H1821   1.084       .  S
N1822      C1827   1.342   1_545  A
N1822      H1854   1.033       .  S
N1823      C1830   1.358       .  A
N1823      C3883   1.353       .  A
N1824      C1829   1.351   1_545  A
N1824      H1855   1.028       .  S
N1825      C1832   1.351       .  A
N1825      C3885   1.351       .  A
C1826      C1834   1.387       .  A
C1826      C1842   1.405       .  A
C1827      C1843   1.399       .  A
C1827      C1835   1.384       .  A
C1828      C1836   1.384       .  A
C1828      C1845   1.411       .  A
C1829      C1844   1.419       .  A
C1829      C1837   1.387       .  A
C1830      C1842   1.421       .  A
C1830      C1838   1.389       .  A
C1831      N3875   1.354       .  A
C1831      C1845   1.416       .  A
C1831      C1839   1.384       .  A
C1832      C1840   1.385       .  A
C1832      C1843   1.409       .  A
C1833      N3877   1.349       .  A
C1833      C1841   1.388       .  A
C1833      C1844   1.412       .  A
C1834      H1846   1.082       .  S
C1835      H1847   1.082       .  S
C1836      H1848   1.076       .  S
C1837      H1849   1.076       .  S
C1838      H1850   1.074       .  S
C1838      C3891   1.358       .  A
C1839      H1851   1.082       .  S
C1839      C3890   1.358       .  A
C1840      H1852   1.082       .  S
C1840      C3893   1.366       .  A
C1841      H1853   1.081       .  S
C1841      C3892   1.367       .  A
C1842      C1933   1.492       .  S
C1843      C1912   1.479       .  S
C1844      C1948   1.476       .  S
C1845      C1921   1.481       .  S
C1856      N1874   1.356       .  A
C1856      C1893   1.472       .  S
N1857      N1874   1.320       .  A
N1857      N1879   1.319       .  A
C1858      N1883   1.355       .  A
C1858      C1896   1.483       .  S
C1858      H1903   1.081       .  S
H1859      C1900   1.081       .  S
C1860      N1884   1.337       .  A
C1860      C1864   1.472       .  S
C1860      H1889   1.082       .  S
Co1861     N1901   2.120       .  S
Co1861     N1877   2.074       .  S
Co1861    Cl1905   2.431       .  S
N1862      C1900   1.353       .  A
N1862      N1869   1.319       .  A
Co1863     N1883   2.117       .  S
Co1863     N1870   2.112       .  S
Co1863    Cl1905   2.511       .  S
C1864      N1902   1.357       .  A
N1865      N1872   1.321       .  A
N1865      N1895   1.338       .  A
N1865     Co1898   2.112   1_565  S
N1866      N1884   1.320       .  A
N1866      N1902   1.333       .  A
N1867      C1896   1.348       .  A
N1867      N1877   1.313       .  A
H1868      C1893   1.081       .  S
N1869      N1890   1.325       .  A
N1870      N1888   1.322       .  A
N1870      N1875   1.334       .  A
C1871      N1875   1.360       .  A
C1871      C1899   1.466       .  S
N1872      C1887   1.340       .  A
C1873      N1901   1.359       .  A
C1873      C1876   1.476       .  S
C1873      H1907   1.081       .  S
C1876      N1897   1.361       .  A
N1877      N1883   1.316       .  A
N1878      C1904   1.347       .  A
N1878      N1880   1.320       .  A
N1878     Co1894   2.120       .  S
N1879      C1893   1.357       .  A
N1880      N1908   1.333       .  A
H1881      C1904   1.080       .  S
H1882      C1899   1.082       .  S
N1884     Co1898   2.111   1_565  S
N1885      N1897   1.322       .  A
N1885      N1901   1.317       .  A
N1885     Co1894   2.105       .  S
C1886      N1890   1.360       .  A
C1886      C1900   1.470       .  S
C1887      C1906   1.473       .  S
C1887      H1891   1.080       .  S
N1888      C1899   1.331       .  A
C1892      N1908   1.357       .  A
C1892      C1904   1.475       .  S
Co1894    Cl1905   2.472       .  S
N1895      C1906   1.359       .  A
C1909      C1910   1.406       .  A
C1909      C1914   1.396       .  A
C1910      H1915   1.084       .  S
C1910      C1911   1.402       .  A
C1911      C1912   1.402       .  A
C1911      O1916   1.371       .  S
C1912      C1913   1.408       .  A
C1913      H1917   1.083       .  S
C1913      C1914   1.389       .  A
C1914      O1918   1.372       .  S
O1916      H1920   0.992       .  S
O1918      H1919   0.992       .  S
C1921      C1922   1.391       .  A
C1921      C1926   1.407       .  A
C1922      H1927   1.085       .  S
C1922      C1923   1.381       .  A
C1923      C1924   1.418       .  A
C1923      O1928   1.368       .  S
C1924      C1925   1.399       .  A
C1925      H1929   1.083       .  S
C1925      C1926   1.406       .  A
C1926      O1930   1.362       .  S
O1928      H1932   0.992       .  S
O1930      H1931   0.991       .  S
C1933      C1934   1.409       .  A
C1933      C1938   1.406       .  A
C1934      H1939   1.081       .  S
C1934      C1935   1.389       .  A
C1935      C1936   1.402       .  A
C1935      O1940   1.372       .  S
C1936      C1937   1.407       .  A
C1937      H1941   1.084       .  S
C1937      C1938   1.407       .  A
C1938      O1942   1.377       .  S
O1940      H1944   0.992       .  S
O1942      H1943   0.992       .  S
C1945      C1946   1.412       .  A
C1945      C1950   1.402       .  A
C1946      H1951   1.069       .  S
C1946      C1947   1.376       .  A
C1947      C1948   1.392       .  A
C1947      O1952   1.374       .  S
C1948      C1949   1.402       .  A
C1949      H1953   1.072       .  S
C1949      C1950   1.409       .  A
C1950      O1954   1.370       .  S
O1952      H1956   0.992       .  S
O1954      H1955   0.992       .  S
C1957      C1958   1.401       .  A
C1957      C1962   1.408       .  A
C1958      H1963   1.083       .  S
C1958      C1959   1.411       .  A
C1959      C1960   1.413       .  A
C1959      O1964   1.370       .  S
C1960      C1961   1.406       .  A
C1961      H1965   1.084       .  S
C1961      C1962   1.392       .  A
C1962      O1966   1.372       .  S
O1964      H1968   0.992       .  S
O1966      H1967   0.991       .  S
C1969      C1970   1.401       .  A
C1969      C1974   1.418       .  A
C1970      H1975   1.084       .  S
C1970      C1971   1.400       .  A
C1971      C1972   1.416       .  A
C1971      O1976   1.368       .  S
C1972      C1973   1.400       .  A
C1973      H1977   1.079       .  S
C1973      C1974   1.406       .  A
C1974      O1978   1.370       .  S
O1976      H1980   0.992       .  S
O1978      H1979   0.991       .  S
C1981      C1982   1.403       .  A
C1981      C1986   1.412       .  A
C1982      H1987   1.083       .  S
C1982      C1983   1.401       .  A
C1983      C1984   1.414       .  A
C1983      O1988   1.372       .  S
C1984      C1985   1.395       .  A
C1985      H1989   1.078       .  S
C1985      C1986   1.399       .  A
C1986      O1990   1.370       .  S
O1988      H1992   0.992       .  S
O1990      H1991   0.992       .  S
C1993      C1994   1.407       .  A
C1993      C1998   1.414       .  A
C1994      H1999   1.083       .  S
C1994      C1995   1.409       .  A
C1995      C1996   1.408       .  A
C1995      O2000   1.369       .  S
C1996      C1997   1.392       .  A
C1997      H2001   1.084       .  S
C1997      C1998   1.374       .  A
C1998      O2002   1.371       .  S
O2000      H2004   0.991       .  S
O2002      H2003   0.992       .  S
C2005      C2006   1.407       .  A
C2005      C2010   1.402       .  A
C2006      H2011   1.084   1_556  S
C2006      C2007   1.401       .  A
C2007      C2008   1.406       .  A
C2007      O2012   1.372       .  S
C2008      C2009   1.405       .  A
C2009      H2013   1.083       .  S
C2009      C2010   1.403       .  A
C2010      O2014   1.371       .  S
O2012      H2016   0.992       .  S
O2014      H2015   0.991       .  S
C2017      C2018   1.396       .  A
C2017      C2022   1.410       .  A
C2018      H2023   1.082       .  S
C2018      C2019   1.397       .  A
C2019      C2020   1.412       .  A
C2019      O2024   1.372       .  S
C2020      C2021   1.399       .  A
C2021      H2025   1.084       .  S
C2021      C2022   1.396       .  A
C2022      O2026   1.370   1_556  S
O2024      H2028   0.992       .  S
O2026      H2027   0.991   1_554  S
C2029      C2030   1.398       .  A
C2029      C2034   1.411       .  A
C2030      H2035   1.085       .  S
C2030      C2031   1.384       .  A
C2031      C2032   1.408       .  A
C2031      O2036   1.374       .  S
C2032      C2033   1.406       .  A
C2033      H2037   1.083       .  S
C2033      C2034   1.411       .  A
C2034      O2038   1.371       .  S
O2036      H2040   0.992       .  S
O2038      H2039   0.991       .  S
C2041      C2042   1.405       .  A
C2041      C2046   1.405       .  A
C2042      H2047   1.079       .  S
C2042      C2043   1.384       .  A
C2043      C2044   1.401       .  A
C2043      O2048   1.373       .  S
C2044      C2045   1.411       .  A
C2045      H2049   1.077       .  S
C2045      C2046   1.411       .  A
C2046      O2050   1.371       .  S
O2048      H2052   0.989       .  S
O2050      H2051   0.992       .  S
C2053      N2071   1.356       .  A
C2053      C2090   1.461       .  S
C2053      C2238   1.484       .  S
N2054      N2071   1.326       .  A
N2054      N2076   1.319       .  A
N2054     Co2604   2.110   1_554  S
C2055      N2080   1.350       .  A
C2055      C2093   1.475       .  S
C2055      H2100   1.082       .  S
H2056      C2097   1.081       .  S
C2057      N2081   1.332       .  A
C2057      C2061   1.462       .  S
C2057      H2086   1.082       .  S
Co2058     N2589   2.096       .  S
Co2058     N2579   2.116       .  S
Co2058     N2098   2.125       .  S
Co2058     N2074   2.081       .  S
Co2058    Cl2615   2.439       .  S
N2059      C2097   1.358       .  A
N2059      N2066   1.323       .  A
N2059     Co2060   2.116   1_554  S
Co2060     N2063   2.146   1_556  S
Co2060     N2593   2.113       .  S
Co2060     N2580   2.159       .  S
Co2060    Cl2102   2.486       .  S
C2061      N2099   1.363       .  A
C2061      C2229   1.508       .  S
N2062      N2069   1.319       .  A
N2062      N2092   1.332       .  A
N2062     Co2095   2.088   1_554  S
N2063      N2081   1.322       .  A
N2063      N2099   1.341       .  A
N2064      C2093   1.350       .  A
N2064      N2074   1.315       .  A
H2065      C2090   1.082       .  S
N2066      N2087   1.323       .  A
N2066     Co2571   2.115   1_554  S
N2067      N2085   1.317       .  A
N2067      N2072   1.344       .  A
N2067     Co2573   2.142       .  S
C2068      N2072   1.372       .  A
C2068      C2096   1.461       .  S
C2068      C2258   1.514       .  S
N2069      C2084   1.334       .  A
N2069     Co2604   2.088   1_554  S
C2070      N2098   1.357       .  A
C2070      C2073   1.481       .  S
C2070      H2104   1.081       .  S
C2073      N2094   1.354       .  A
C2073      C2247   1.505       .  S
N2074      N2080   1.319       .  A
N2075      C2101   1.336       .  A
N2075      N2077   1.318       .  A
N2075     Co2091   2.084       .  S
N2076      C2090   1.345       .  A
N2076     Co2571   2.083   1_554  S
N2077      N2105   1.337       .  A
N2077     Co2608   2.138       .  S
H2078      C2101   1.082       .  S
H2079      C2096   1.072       .  S
N2080     Co2573   2.105       .  S
N2081     Co2095   2.083   1_554  S
N2082      N2094   1.325       .  A
N2082      N2098   1.316       .  A
N2082     Co2091   2.085       .  S
C2083      N2087   1.353       .  A
C2083      C2097   1.474       .  S
C2083      C2115   1.505       .  S
C2084      C2103   1.462       .  S
C2084      H2088   1.082       .  S
N2085      C2096   1.310       .  A
N2085     Co2608   2.057       .  S
C2089      N2105   1.367       .  A
C2089      C2101   1.465       .  S
C2089      C2126   1.497       .  S
Co2091     N2567   2.110       .  S
Co2091     N2582   2.081       .  S
Co2091    Cl2615   2.442       .  S
N2092      C2103   1.353       .  A
C2093      C2135   1.479       .  S
Co2095     N2590   2.147       .  S
Co2095     N2598   2.058       .  S
Co2095    Cl2102   2.467       .  S
Cl2102    Co2571   2.448       .  S
Cl2102    Co2604   2.443       .  S
C2103      C2106   1.485       .  S
C2106      C2107   1.408       .  A
C2106      C2111   1.426       .  A
C2107      H2112   1.083       .  S
C2107      C2108   1.387       .  A
C2108      C2554   1.485       .  S
C2108      C2109   1.396       .  A
C2109      H2113   1.084       .  S
C2109      C2110   1.411       .  A
C2110      C2206   1.496       .  S
C2110      C2111   1.423       .  A
C2111      H2114   1.083       .  S
C2115      C2116   1.431       .  A
C2115      C2120   1.413       .  A
C2116      H2121   1.082       .  S
C2116      C2117   1.428       .  A
C2117      C2216   1.498       .  S
C2117      C2118   1.405       .  A
C2118      H2122   1.086       .  S
C2118      C2119   1.387       .  A
C2119      C2545   1.478       .  S
C2119      C2120   1.396       .  A
C2120      H2123   1.084       .  S
C2124      C2226   1.503       .  S
C2124      C2125   1.428       .  A
C2124      C2129   1.407       .  A
C2125      H2130   1.082       .  S
C2125      C2126   1.430       .  A
C2126      C2127   1.400       .  A
C2127      H2131   1.086       .  S
C2127      C2128   1.390       .  A
C2128      C2533   1.473       .  S
C2128      C2129   1.397       .  A
C2129      H2132   1.084       .  S
C2133      C2212   1.490       .  S
C2133      C2134   1.417       .  A
C2133      C2138   1.416       .  A
C2134      H2139   1.083       .  S
C2134      C2135   1.413       .  A
C2135      C2136   1.403       .  A
C2136      H2140   1.086       .  S
C2136      C2137   1.385       .  A
C2137      C2521   1.479       .  S
C2137      C2138   1.400       .  A
C2138      H2141   1.083       .  S
N2142      C2147   1.349       .  A
N2142      H2174   1.044       .  S
N2143      C2663   1.354       .  A
N2143      C2151   1.344       .  A
N2144      C2149   1.361       .  A
N2144      H2175   1.039       .  S
N2145      C2665   1.356       .  A
N2145      C2153   1.342       .  A
C2146      C2154   1.378       .  A
C2146      C2162   1.397       .  A
C2147      C2163   1.398       .  A
C2147      C2155   1.385       .  A
C2148      C2156   1.388       .  A
C2148      C2165   1.431       .  A
C2149      C2164   1.426       .  A
C2149      C2157   1.385       .  A
C2150      N2656   1.354       .  A
C2150      C2162   1.405       .  A
C2150      C2158   1.377       .  A
C2151      C2165   1.423       .  A
C2151      C2159   1.396       .  A
C2152      N2658   1.357       .  A
C2152      C2160   1.376       .  A
C2152      C2163   1.403       .  A
C2153      C2161   1.396       .  A
C2153      C2164   1.419       .  A
C2154      H2166   1.071       .  S
C2155      H2167   1.083       .  S
C2156      H2168   1.083       .  S
C2157      H2169   1.083       .  S
C2158      H2170   1.081       .  S
C2158      C2672   1.372       .  A
C2159      H2171   1.082       .  S
C2159      C2671   1.372       .  A
C2160      H2172   1.082       .  S
C2160      C2674   1.372       .  A
C2161      H2173   1.080       .  S
C2161      C2673   1.371       .  A
C2162      C2530   1.479       .  S
C2163      C2518   1.483       .  S
C2164      C2542   1.483       .  S
C2165      C2557   1.490       .  S
C2176      N2194   1.350       .  A
C2176      C2213   1.488       .  S
C2176      C2317   1.518       .  S
N2177      N2194   1.319       .  A
N2177      N2199   1.318       .  A
C2178      N2203   1.361       .  A
C2178      C2216   1.476       .  S
C2178      H2223   1.081       .  S
H2179      C2220   1.076       .  S
C2180      N2204   1.331       .  A
C2180      C2184   1.468       .  S
C2180      H2209   1.082       .  S
Co2181     N2221   2.115       .  S
Co2181     N2197   2.093       .  S
Co2181    Cl2225   2.484       .  S
N2182      C2220   1.358       .  A
N2182      N2189   1.320       .  A
Co2183     N2203   2.127       .  S
Co2183     N2190   2.134       .  S
Co2183    Cl2225   2.480       .  S
C2184      N2222   1.355       .  A
C2184      C2299   1.494       .  S
N2185      N2192   1.318       .  A
N2185      N2215   1.335       .  A
N2186      N2204   1.321       .  A
N2186      N2222   1.334       .  A
N2187      C2216   1.350       .  A
N2187      N2197   1.315       .  A
H2188      C2213   1.077       .  S
N2189      N2210   1.312       .  A
N2190      N2208   1.320       .  A
N2190      N2195   1.339       .  A
C2191      N2195   1.367       .  A
C2191      C2219   1.468       .  S
C2191      C2328   1.509       .  S
N2192      C2207   1.342       .  A
C2193      N2221   1.364       .  A
C2193      C2196   1.486       .  S
C2193      H2227   1.082       .  S
C2196      N2217   1.342       .  A
C2196      C2310   1.496       .  S
N2197      N2203   1.324       .  A
N2198      C2224   1.335       .  A
N2198      N2200   1.316       .  A
N2198     Co2214   2.073   1_655  S
N2199      C2213   1.367       .  A
N2200      N2228   1.334       .  A
N2200     Co2218   2.111       .  S
H2201      C2224   1.082       .  S
H2202      C2219   1.082       .  S
N2205      N2217   1.309       .  A
N2205      N2221   1.315       .  A
N2205     Co2214   2.063   1_655  S
C2206      N2210   1.347       .  A
C2206      C2220   1.477       .  S
C2207      C2226   1.472       .  S
C2207      H2211   1.082       .  S
N2208      C2219   1.332       .  A
N2208     Co2218   2.094       .  S
C2212      N2228   1.361       .  A
C2212      C2224   1.455       .  S
Co2214    Cl2225   2.417   1_455  S
N2215      C2226   1.364       .  A
Co2218    Cl2225   2.459       .  S
C2229      C2230   1.410       .  A
C2229      C2234   1.434       .  A
C2230      H2235   1.085       .  S
C2230      C2231   1.393       .  A
C2231      C2506   1.479       .  S
C2231      C2232   1.389       .  A
C2232      H2236   1.085       .  S
C2232      C2233   1.406       .  A
C2233      C2399   1.499       .  S
C2233      C2234   1.436       .  A
C2234      H2237   1.082       .  S
C2238      C2239   1.419       .  A
C2238      C2243   1.407       .  A
C2239      H2244   1.083       .  S
C2239      C2240   1.414       .  A
C2240      C2409   1.485       .  S
C2240      C2241   1.405       .  A
C2241      H2245   1.085       .  S
C2241      C2242   1.394       .  A
C2242      C2494   1.488       .  S
C2242      C2243   1.401       .  A
C2243      H2246   1.084       .  S
C2247      C2248   1.408       .  A
C2247      C2252   1.426       .  A
C2248      H2253   1.084       .  S
C2248      C2249   1.400       .  A
C2249      C2482   1.495       .  S
C2249      C2250   1.409       .  A
C2250      H2254   1.082       .  S
C2250      C2251   1.409       .  A
C2251      C2405   1.511       .  S
C2251      C2252   1.428       .  A
C2252      H2255   1.083       .  S
C2256      C2419   1.505       .  S
C2256      C2257   1.439       .  A
C2256      C2261   1.410       .  A
C2257      H2262   1.082       .  S
C2257      C2258   1.436       .  A
C2258      C2259   1.409       .  A
C2259      H2263   1.085       .  S
C2259      C2260   1.388       .  A
C2260      C2473   1.488       .  S
C2260      C2261   1.395       .  A
C2261      H2264   1.081       .  S
N2265      C2783   1.335       .  A
N2265      C2269   1.348       .  A
N2265      H2297   1.045       .  S
N2266      C3299   1.354       .  A
N2266      C2274   1.342       .  A
N2267      C2785   1.361       .  A
N2267      C2271   1.359       .  A
N2267      H2298   1.038       .  S
N2268      C3301   1.355       .  A
N2268      C2276   1.343       .  A
C2269      C2277   1.386       .  A
C2269      C2285   1.401       .  A
C2270      N2778   1.335       .  A
C2270      C2286   1.394       .  A
C2270      C2278   1.390       .  A
C2271      C2279   1.389       .  A
C2271      C2288   1.426       .  A
C2272      N2780   1.358       .  A
C2272      C2287   1.414       .  A
C2272      C2280   1.383       .  A
C2273      N3292   1.355       .  A
C2273      C2285   1.405   1_565  A
C2273      C2281   1.379       .  A
C2274      C2288   1.420       .  A
C2274      C2282   1.396       .  A
C2275      N3294   1.356       .  A
C2275      C2283   1.366       .  A
C2275      C2286   1.403   1_565  A
C2276      C2284   1.389       .  A
C2276      C2287   1.415       .  A
C2277      H2289   1.082   1_545  S
C2277      C2791   1.371       .  A
C2278      H2290   1.083   1_545  S
C2278      C2790   1.371       .  A
C2279      H2291   1.083       .  S
C2279      C2793   1.374       .  A
C2280      H2292   1.082       .  S
C2280      C2792   1.375       .  A
C2281      H2293   1.083       .  S
C2281      C3308   1.373       .  A
C2282      H2294   1.081       .  S
C2282      C3307   1.373       .  A
C2283      H2295   1.072       .  S
C2283      C3310   1.361       .  A
C2284      H2296   1.081       .  S
C2284      C3309   1.363       .  A
C2285      C2497   1.487       .  S
C2286      C2485   1.505       .  S
C2287      C2470   1.488       .  S
C2288      C2509   1.477       .  S
C2299      C2300   1.433       .  A
C2299      C2304   1.406       .  A
C2300      H2305   1.081       .  S
C2300      C2301   1.436       .  A
C2301      C2369   1.492       .  S
C2301      C2302   1.411       .  A
C2302      H2306   1.085       .  S
C2302      C2303   1.392       .  A
C2303      C2458   1.493       .  S
C2303      C2304   1.382       .  A
C2304      H2307   1.083       .  S
C2308      C2384   1.496       .  S
C2308      C2309   1.430       .  A
C2308      C2313   1.411       .  A
C2309      H2314   1.083       .  S
C2309      C2310   1.424       .  A
C2310      C2311   1.407       .  A
C2311      H2315   1.085       .  S
C2311      C2312   1.381       .  A
C2312      C2449   1.477       .  S
C2312      C2313   1.388       .  A
C2313      H2316   1.082       .  S
C2317      C2318   1.415       .  A
C2317      C2322   1.442       .  A
C2318      H2323   1.083       .  S
C2318      C2319   1.389       .  A
C2319      C2437   1.480       .  S
C2319      C2320   1.384       .  A
C2320      H2324   1.086       .  S
C2320      C2321   1.402       .  A
C2321      C2389   1.507       .  S
C2321      C2322   1.446       .  A
C2322      H2325   1.081       .  S
C2326      C2377   1.502       .  S
C2326      C2327   1.436       .  A
C2326      C2331   1.405       .  A
C2327      H2332   1.082       .  S
C2327      C2328   1.433       .  A
C2328      C2329   1.406       .  A
C2329      H2333   1.084       .  S
C2329      C2330   1.385       .  A
C2330      C2422   1.466       .  S
C2330      C2331   1.385       .  A
C2331      H2334   1.084       .  S
N2335      C2340   1.348       .  A
N2335      C3365   1.346       .  A
N2335      H2367   1.023   1_655  S
N2336      C2343   1.357       .  A
N2337      C2342   1.351       .  A
N2337      C3367   1.353       .  A
N2337      H2368   1.031       .  S
N2338      C2345   1.351       .  A
C2339      N3361   1.344       .  A
C2339      C2347   1.388       .  A
C2339      C2355   1.411       .  A
C2340      C2356   1.409       .  A
C2340      C2348   1.385       .  A
C2341      N3363   1.355       .  A
C2341      C2349   1.385       .  A
C2341      C2358   1.413       .  A
C2342      C2357   1.415       .  A
C2342      C2350   1.387       .  A
C2343      C2355   1.421   1_455  A
C2343      C2351   1.387       .  A
C2344      C2358   1.413       .  A
C2344      C2352   1.384       .  A
C2345      C2353   1.386       .  A
C2345      C2356   1.411   1_455  A
C2346      C2354   1.386       .  A
C2346      C2357   1.413       .  A
C2347      H2359   1.082       .  S
C2347      C3374   1.379   1_545  A
C2348      H2360   1.083       .  S
C2348      C3373   1.379       .  A
C2349      H2361   1.080       .  S
C2349      C3376   1.373   1_545  A
C2350      H2362   1.080       .  S
C2350      C3375   1.373       .  A
C2351      H2363   1.074       .  S
C2352      H2364   1.081       .  S
C2353      H2365   1.081   1_455  S
C2354      H2366   1.081       .  S
C2355      C2446   1.494       .  S
C2356      C2425   1.484       .  S
C2357      C2461   1.479       .  S
C2358      C2434   1.480       .  S
C2369      N2387   1.355       .  A
C2369      C2406   1.471       .  S
N2370      N2387   1.317       .  A
N2370      N2392   1.319       .  A
N2370     Co3433   2.097       .  S
C2371      N2396   1.354       .  A
C2371      C2409   1.481       .  S
C2371      H2416   1.081       .  S
H2372      C2413   1.081       .  S
C2373      N2397   1.340       .  A
C2373      C2377   1.472       .  S
C2373      H2402   1.082       .  S
Co2374     N3418   2.099   1_545  S
Co2374     N3408   2.127   1_545  S
Co2374     N2414   2.118       .  S
Co2374     N2390   2.071       .  S
Co2374    Cl2418   2.437       .  S
N2375      C2413   1.354       .  A
N2375      N2382   1.320       .  A
N2375     Co3402   2.099       .  S
Co2376     N3401   2.108   1_545  S
Co2376     N3405   2.101   1_545  S
Co2376     N2396   2.117       .  S
Co2376     N2383   2.117       .  S
Co2376    Cl2418   2.509       .  S
C2377      N2415   1.359       .  A
N2378      N2385   1.322       .  A
N2378      N2408   1.337       .  A
N2378     Co2411   2.103       .  S
N2379      N2397   1.321       .  A
N2379      N2415   1.336       .  A
N2379     Co3402   2.107       .  S
N2380      C2409   1.349       .  A
N2380      N2390   1.314       .  A
H2381      C2406   1.081       .  S
N2382      N2403   1.325       .  A
N2382     Co3400   2.128       .  S
N2383      N2401   1.323       .  A
N2383      N2388   1.335       .  A
C2384      N2388   1.360       .  A
C2384      C2412   1.466       .  S
N2385      C2400   1.337       .  A
N2385     Co3433   2.115       .  S
C2386      N2414   1.358       .  A
C2386      C2389   1.475       .  S
C2386      H2420   1.082       .  S
C2389      N2410   1.362       .  A
N2390      N2396   1.317       .  A
N2391      C2417   1.348       .  A
N2391      N2393   1.321       .  A
N2391     Co2407   2.124       .  S
N2392      C2406   1.355       .  A
N2392     Co3400   2.104       .  S
N2393      N2421   1.336       .  A
N2393     Co3437   2.125       .  S
H2394      C2417   1.080       .  S
H2395      C2412   1.082       .  S
N2397     Co2411   2.119       .  S
N2398      N2410   1.322       .  A
N2398      N2414   1.318       .  A
N2398     Co2407   2.109       .  S
C2399      N2403   1.359       .  A
C2399      C2413   1.471       .  S
C2400      C2419   1.471       .  S
C2400      H2404   1.081       .  S
N2401      C2412   1.334       .  A
N2401     Co3437   2.102       .  S
C2405      N2421   1.360       .  A
C2405      C2417   1.475       .  S
Co2407     N3396   2.094   1_545  S
Co2407     N3411   2.124   1_545  S
Co2407    Cl2418   2.470       .  S
N2408      C2419   1.357       .  A
Co2411     N3419   2.128       .  S
Co2411     N3427   2.097       .  S
Co2411    Cl3444   2.442       .  S
Cl2418    Co3437   2.446       .  S
C2422      C2423   1.407       .  A
C2422      C2427   1.397       .  A
C2423      H2428   1.084       .  S
C2423      C2424   1.405       .  A
C2424      C2425   1.404       .  A
C2424      O2429   1.372       .  S
C2425      C2426   1.407       .  A
C2426      H2430   1.083       .  S
C2426      C2427   1.390       .  A
C2427      O2431   1.372       .  S
O2429      H2433   0.992       .  S
O2431      H2432   0.992       .  S
C2434      C2435   1.391       .  A
C2434      C2439   1.409       .  A
C2435      H2440   1.085       .  S
C2435      C2436   1.381       .  A
C2436      C2437   1.417       .  A
C2436      O2441   1.369       .  S
C2437      C2438   1.400       .  A
C2438      H2442   1.083       .  S
C2438      C2439   1.406       .  A
C2439      O2443   1.363       .  S
O2441      H2445   0.992       .  S
O2443      H2444   0.991       .  S
C2446      C2447   1.408       .  A
C2446      C2451   1.405       .  A
C2447      H2452   1.079       .  S
C2447      C2448   1.389       .  A
C2448      C2449   1.398       .  A
C2448      O2453   1.371       .  S
C2449      C2450   1.410       .  A
C2450      H2454   1.084       .  S
C2450      C2451   1.409       .  A
C2451      O2455   1.377       .  S
O2453      H2457   0.992       .  S
O2455      H2456   0.992       .  S
C2458      C2459   1.412       .  A
C2458      C2463   1.400       .  A
C2459      H2464   1.071       .  S
C2459      C2460   1.380       .  A
C2460      C2461   1.396       .  A
C2460      O2465   1.375       .  S
C2461      C2462   1.403       .  A
C2462      H2466   1.074       .  S
C2462      C2463   1.410       .  A
C2463      O2467   1.369       .  S
O2465      H2469   0.992       .  S
O2467      H2468   0.992       .  S
C2470      C2471   1.400       .  A
C2470      C2475   1.409       .  A
C2471      H2476   1.083       .  S
C2471      C2472   1.410       .  A
C2472      C2473   1.410       .  A
C2472      O2477   1.368       .  S
C2473      C2474   1.406       .  A
C2474      H2478   1.084       .  S
C2474      C2475   1.392       .  A
C2475      O2479   1.371       .  S
O2477      H2481   0.992       .  S
O2479      H2480   0.991       .  S
C2482      C2483   1.400       .  A
C2482      C2487   1.416       .  A
C2483      H2488   1.084       .  S
C2483      C2484   1.400       .  A
C2484      C2485   1.417       .  A
C2484      O2489   1.370   1_545  S
C2485      C2486   1.400       .  A
C2486      H2490   1.081       .  S
C2486      C2487   1.405       .  A
C2487      O2491   1.369       .  S
O2489      H2493   0.991       .  S
O2491      H2492   0.991       .  S
C2494      C2495   1.405       .  A
C2494      C2499   1.414       .  A
C2495      H2500   1.084       .  S
C2495      C2496   1.400       .  A
C2496      C2497   1.415       .  A
C2496      O2501   1.372   1_545  S
C2497      C2498   1.397       .  A
C2498      H2502   1.079       .  S
C2498      C2499   1.397       .  A
C2499      O2503   1.371       .  S
O2501      H2505   0.992       .  S
O2503      H2504   0.991       .  S
C2506      C2507   1.407       .  A
C2506      C2511   1.414       .  A
C2507      H2512   1.083       .  S
C2507      C2508   1.410       .  A
C2508      C2509   1.410       .  A
C2508      O2513   1.371       .  S
C2509      C2510   1.391       .  A
C2510      H2514   1.085       .  S
C2510      C2511   1.375       .  A
C2511      O2515   1.372       .  S
O2513      H2517   0.991       .  S
O2515      H2516   0.992       .  S
C2518      C2519   1.405       .  A
C2518      C2523   1.403       .  A
C2519      H2524   1.084       .  S
C2519      C2520   1.400       .  A
C2520      C2521   1.406       .  A
C2520      O2525   1.373       .  S
C2521      C2522   1.406       .  A
C2522      H2526   1.083       .  S
C2522      C2523   1.404       .  A
C2523      O2527   1.371       .  S
O2525      H2529   0.992       .  S
O2527      H2528   0.992       .  S
C2530      C2531   1.395       .  A
C2530      C2535   1.410       .  A
C2531      H2536   1.080       .  S
C2531      C2532   1.397       .  A
C2532      C2533   1.410       .  A
C2532      O2537   1.372       .  S
C2533      C2534   1.400       .  A
C2534      H2538   1.083       .  S
C2534      C2535   1.402       .  A
C2535      O2539   1.372       .  S
O2537      H2541   0.992       .  S
O2539      H2540   0.991       .  S
C2542      C2543   1.397       .  A
C2542      C2547   1.411       .  A
C2543      H2548   1.085       .  S
C2543      C2544   1.385       .  A
C2544      C2545   1.410       .  A
C2544      O2549   1.375       .  S
C2545      C2546   1.406       .  A
C2546      H2550   1.083       .  S
C2546      C2547   1.411       .  A
C2547      O2551   1.371       .  S
O2549      H2553   0.992       .  S
O2551      H2552   0.991       .  S
C2554      C2555   1.404       .  A
C2554      C2559   1.410       .  A
C2555      H2560   1.078       .  S
C2555      C2556   1.381       .  A
C2556      C2557   1.401       .  A
C2556      O2561   1.374       .  S
C2557      C2558   1.412       .  A
C2558      H2562   1.079       .  S
C2558      C2559   1.412       .  A
C2559      O2563   1.375       .  S
O2561      H2565   0.992       .  S
O2563      H2564   0.991       .  S
C2566      N2584   1.357       .  A
C2566      C2603   1.466       .  S
C2566      C2751   1.492       .  S
N2567      N2584   1.328       .  A
N2567      N2589   1.319       .  A
C2568      N2593   1.351       .  A
C2568      C2606   1.475       .  S
C2568      H2613   1.081       .  S
H2569      C2610   1.081       .  S
C2570      N2594   1.329       .  A
C2570      C2574   1.461       .  S
C2570      H2599   1.082       .  S
Co2571     N2611   2.131       .  S
Co2571     N2587   2.084       .  S
N2572      C2610   1.357       .  A
N2572      N2579   1.322       .  A
N2572     Co2573   2.105       .  S
Co2573     N2576   2.135       .  S
Co2573    Cl2615   2.489       .  S
C2574      N2612   1.361       .  A
C2574      C2742   1.498       .  S
N2575      N2582   1.319       .  A
N2575      N2605   1.336       .  A
N2575     Co2608   2.101       .  S
N2576      N2594   1.322       .  A
N2576      N2612   1.339       .  A
N2577      C2606   1.351       .  A
N2577      N2587   1.317       .  A
H2578      C2603   1.082       .  S
N2579      N2600   1.321       .  A
N2580      N2598   1.317       .  A
N2580      N2585   1.347       .  A
C2581      N2585   1.377       .  A
C2581      C2609   1.462       .  S
C2581      C2771   1.525       .  S
N2582      C2597   1.329       .  A
C2583      N2611   1.358       .  A
C2583      C2586   1.484       .  S
C2583      H2617   1.082       .  S
C2586      N2607   1.352       .  A
C2586      C2760   1.504       .  S
N2587      N2593   1.321       .  A
N2588      C2614   1.339       .  A
N2588      N2590   1.319       .  A
N2588     Co2604   2.092       .  S
N2589      C2603   1.347       .  A
N2590      N2618   1.338       .  A
H2591      C2614   1.082       .  S
H2592      C2609   1.073       .  S
N2594     Co2608   2.074       .  S
N2595      N2607   1.324       .  A
N2595      N2611   1.317       .  A
N2595     Co2604   2.086       .  S
C2596      N2600   1.353       .  A
C2596      C2610   1.474       .  S
C2596      C2628   1.503       .  S
C2597      C2616   1.458       .  S
C2597      H2601   1.081       .  S
N2598      C2609   1.312       .  A
C2602      N2618   1.369       .  A
C2602      C2614   1.468       .  S
C2602      C2639   1.505       .  S
N2605      C2616   1.359       .  A
C2606      C2648   1.482       .  S
Co2608    Cl2615   2.469       .  S
C2616      C2619   1.491       .  S
C2619      C2620   1.412       .  A
C2619      C2624   1.427       .  A
C2620      H2625   1.081       .  S
C2620      C2621   1.386       .  A
C2621      C3067   1.487       .  S
C2621      C2622   1.390       .  A
C2622      H2626   1.084       .  S
C2622      C2623   1.409       .  A
C2623      C2719   1.496       .  S
C2623      C2624   1.424       .  A
C2624      H2627   1.083       .  S
C2628      C2629   1.433       .  A
C2628      C2633   1.412       .  A
C2629      H2634   1.082       .  S
C2629      C2630   1.431       .  A
C2630      C2729   1.498       .  S
C2630      C2631   1.403       .  A
C2631      H2635   1.086       .  S
C2631      C2632   1.384       .  A
C2632      C3058   1.473       .  S
C2632      C2633   1.393       .  A
C2633      H2636   1.084       .  S
C2637      C2739   1.506       .  S
C2637      C2638   1.433       .  A
C2637      C2642   1.405       .  A
C2638      H2643   1.082       .  S
C2638      C2639   1.433       .  A
C2639      C2640   1.399       .  A
C2640      H2644   1.086       .  S
C2640      C2641   1.392       .  A
C2641      C3046   1.473       .  S
C2641      C2642   1.395       .  A
C2642      H2645   1.085       .  S
C2646      C2725   1.493       .  S
C2646      C2647   1.419       .  A
C2646      C2651   1.415       .  A
C2647      H2652   1.083       .  S
C2647      C2648   1.415       .  A
C2648      C2649   1.402       .  A
C2649      H2653   1.086       .  S
C2649      C2650   1.386       .  A
C2650      C3034   1.479       .  S
C2650      C2651   1.401       .  A
C2651      H2654   1.083       .  S
N2655      C2660   1.350       .  A
N2655      H2687   1.044       .  S
N2656      C2664   1.345       .  A
N2657      C2662   1.362       .  A
N2657      H2688   1.038       .  S
N2658      C2666   1.341       .  A
C2659      C2667   1.377       .  A
C2659      C2675   1.398       .  A
C2660      C2676   1.401       .  A
C2660      C2668   1.385       .  A
C2661      C2669   1.387       .  A
C2661      C2678   1.432       .  A
C2662      C2677   1.426       .  A
C2662      C2670   1.385       .  A
C2663      C2675   1.408   1_554  A
C2663      C2671   1.379       .  A
C2664      C2678   1.423       .  A
C2664      C2672   1.395       .  A
C2665      C2673   1.377       .  A
C2665      C2676   1.404   1_554  A
C2666      C2674   1.398       .  A
C2666      C2677   1.420       .  A
C2667      H2679   1.070       .  S
C2668      H2680   1.083       .  S
C2669      H2681   1.083       .  S
C2670      H2682   1.083       .  S
C2671      H2683   1.082   1_554  S
C2672      H2684   1.081       .  S
C2673      H2685   1.083       .  S
C2674      H2686   1.080       .  S
C2675      C3043   1.479       .  S
C2676      C3031   1.482       .  S
C2677      C3055   1.480       .  S
C2678      C3070   1.496       .  S
C2689      N2707   1.351       .  A
C2689      C2726   1.486       .  S
C2689      C2830   1.519       .  S
N2690      N2707   1.319       .  A
N2690      N2712   1.318       .  A
C2691      N2716   1.360       .  A
C2691      C2729   1.473       .  S
C2691      H2736   1.081       .  S
H2692      C2733   1.073       .  S
C2693      N2717   1.333       .  A
C2693      C2697   1.467       .  S
C2693      H2722   1.082       .  S
Co2694     N2734   2.116       .  S
Co2694     N2710   2.098       .  S
Co2694    Cl2738   2.487       .  S
N2695      C2733   1.357       .  A
N2695      N2702   1.319       .  A
Co2696     N2716   2.122       .  S
Co2696     N2703   2.145       .  S
Co2696    Cl2738   2.478       .  S
C2697      N2735   1.356       .  A
C2697      C2812   1.496       .  S
N2698      N2705   1.318       .  A
N2698      N2728   1.336       .  A
N2699      N2717   1.322       .  A
N2699      N2735   1.335       .  A
N2700      C2729   1.352       .  A
N2700      N2710   1.316       .  A
H2701      C2726   1.078       .  S
N2702      N2723   1.310       .  A
N2703      N2721   1.321       .  A
N2703      N2708   1.341       .  A
C2704      N2708   1.369       .  A
C2704      C2732   1.468       .  S
C2704      C2841   1.513       .  S
N2705      C2720   1.342       .  A
C2706      N2734   1.363       .  A
C2706      C2709   1.484       .  S
C2706      H2740   1.082       .  S
C2709      N2730   1.343       .  A
C2709      C2823   1.494       .  S
N2710      N2716   1.324       .  A
N2711      C2737   1.336       .  A
N2711      N2713   1.316       .  A
N2711     Co2727   2.076   1_655  S
N2712      C2726   1.366       .  A
N2713      N2741   1.335       .  A
N2713     Co2731   2.112       .  S
H2714      C2737   1.082       .  S
H2715      C2732   1.082       .  S
N2718      N2730   1.310       .  A
N2718      N2734   1.316       .  A
N2718     Co2727   2.064   1_655  S
C2719      N2723   1.347       .  A
C2719      C2733   1.477       .  S
C2720      C2739   1.473       .  S
C2720      H2724   1.082       .  S
N2721      C2732   1.332       .  A
N2721     Co2731   2.094       .  S
C2725      N2741   1.361       .  A
C2725      C2737   1.457       .  S
Co2727    Cl2738   2.418   1_455  S
N2728      C2739   1.365       .  A
Co2731    Cl2738   2.463       .  S
C2742      C2743   1.408       .  A
C2742      C2747   1.430       .  A
C2743      H2748   1.085       .  S
C2743      C2744   1.389       .  A
C2744      C3019   1.479       .  S
C2744      C2745   1.390       .  A
C2745      H2749   1.085       .  S
C2745      C2746   1.406       .  A
C2746      C2912   1.493       .  S
C2746      C2747   1.432       .  A
C2747      H2750   1.083       .  S
C2751      C2752   1.422       .  A
C2751      C2756   1.410       .  A
C2752      H2757   1.083       .  S
C2752      C2753   1.417       .  A
C2753      C2922   1.491       .  S
C2753      C2754   1.405       .  A
C2754      H2758   1.086       .  S
C2754      C2755   1.393       .  A
C2755      C3007   1.486       .  S
C2755      C2756   1.404       .  A
C2756      H2759   1.084       .  S
C2760      C2761   1.408       .  A
C2760      C2765   1.427       .  A
C2761      H2766   1.084       .  S
C2761      C2762   1.398       .  A
C2762      C2995   1.494       .  S
C2762      C2763   1.408       .  A
C2763      H2767   1.080       .  S
C2763      C2764   1.409       .  A
C2764      C2918   1.512       .  S
C2764      C2765   1.428       .  A
C2765      H2768   1.082       .  S
C2769      C2932   1.516       .  S
C2769      C2770   1.446       .  A
C2769      C2774   1.407       .  A
C2770      H2775   1.082       .  S
C2770      C2771   1.443       .  A
C2771      C2772   1.409       .  A
C2772      H2776   1.085       .  S
C2772      C2773   1.388       .  A
C2773      C2986   1.487       .  S
C2773      C2774   1.398       .  A
C2774      H2777   1.080       .  S
N2778      C2782   1.348       .  A
N2778      H2810   1.044       .  S
N2779      C3812   1.354       .  A
N2779      C2787   1.342       .  A
N2780      C2784   1.358       .  A
N2780      H2811   1.040       .  S
N2781      C3814   1.355       .  A
N2781      C2789   1.345       .  A
C2782      C2790   1.386       .  A
C2782      C2798   1.401       .  A
C2783      C2799   1.392   1_554  A
C2783      C2791   1.390       .  A
C2784      C2792   1.387       .  A
C2784      C2801   1.419       .  A
C2785      C2800   1.418   1_554  A
C2785      C2793   1.383       .  A
C2786      N3805   1.355       .  A
C2786      C2798   1.405   1_565  A
C2786      C2794   1.379       .  A
C2787      C2801   1.418       .  A
C2787      C2795   1.393       .  A
C2788      N3807   1.355       .  A
C2788      C2796   1.365       .  A
C2788      C2799   1.402   1_565  A
C2789      C2797   1.389       .  A
C2789      C2800   1.417       .  A
C2790      H2802   1.082   1_545  S
C2791      H2803   1.083   1_545  S
C2792      H2804   1.083       .  S
C2793      H2805   1.082       .  S
C2794      H2806   1.083       .  S
C2794      C3821   1.372       .  A
C2795      H2807   1.081       .  S
C2795      C3820   1.375       .  A
C2796      H2808   1.071       .  S
C2796      C3823   1.361       .  A
C2797      H2809   1.081       .  S
C2797      C3822   1.364       .  A
C2798      C3010   1.486       .  S
C2799      C2998   1.503       .  S
C2800      C2983   1.491       .  S
C2801      C3022   1.477       .  S
C2812      C2813   1.432       .  A
C2812      C2817   1.407       .  A
C2813      H2818   1.082       .  S
C2813      C2814   1.435       .  A
C2814      C2882   1.490       .  S
C2814      C2815   1.410       .  A
C2815      H2819   1.085       .  S
C2815      C2816   1.391       .  A
C2816      C2971   1.492       .  S
C2816      C2817   1.383       .  A
C2817      H2820   1.082       .  S
C2821      C2897   1.493       .  S
C2821      C2822   1.428       .  A
C2821      C2826   1.411       .  A
C2822      H2827   1.083       .  S
C2822      C2823   1.422       .  A
C2823      C2824   1.406       .  A
C2824      H2828   1.085       .  S
C2824      C2825   1.382       .  A
C2825      C2962   1.478       .  S
C2825      C2826   1.388       .  A
C2826      H2829   1.082       .  S
C2830      C2831   1.413       .  A
C2830      C2835   1.443       .  A
C2831      H2836   1.083       .  S
C2831      C2832   1.387       .  A
C2832      C2950   1.477       .  S
C2832      C2833   1.385       .  A
C2833      H2837   1.086       .  S
C2833      C2834   1.402       .  A
C2834      C2902   1.512       .  S
C2834      C2835   1.448       .  A
C2835      H2838   1.081       .  S
C2839      C2890   1.502       .  S
C2839      C2840   1.439       .  A
C2839      C2844   1.401       .  A
C2840      H2845   1.082       .  S
C2840      C2841   1.437       .  A
C2841      C2842   1.406       .  A
C2842      H2846   1.084       .  S
C2842      C2843   1.384       .  A
C2843      C2935   1.460       .  S
C2843      C2844   1.378       .  A
C2844      H2847   1.084       .  S
N2848      C2853   1.345       .  A
N2848      C3878   1.344       .  A
N2848      H2880   1.031   1_655  S
N2849      C2856   1.358       .  A
N2850      C2855   1.352       .  A
N2850      C3880   1.350       .  A
N2850      H2881   1.030       .  S
N2851      C2858   1.351       .  A
C2852      N3874   1.342       .  A
C2852      C2860   1.387       .  A
C2852      C2868   1.406       .  A
C2853      C2869   1.402       .  A
C2853      C2861   1.384       .  A
C2854      N3876   1.351       .  A
C2854      C2862   1.385       .  A
C2854      C2871   1.415       .  A
C2855      C2870   1.412       .  A
C2855      C2863   1.385       .  A
C2856      C2868   1.420   1_455  A
C2856      C2864   1.387       .  A
C2857      C2871   1.417       .  A
C2857      C2865   1.387       .  A
C2858      C2866   1.387       .  A
C2858      C2869   1.411   1_455  A
C2859      C2867   1.387       .  A
C2859      C2870   1.410       .  A
C2860      H2872   1.082       .  S
C2860      C3887   1.381   1_545  A
C2861      H2873   1.082       .  S
C2861      C3886   1.379       .  A
C2862      H2874   1.078       .  S
C2862      C3889   1.372   1_545  A
C2863      H2875   1.080       .  S
C2863      C3888   1.373       .  A
C2864      H2876   1.073       .  S
C2865      H2877   1.082       .  S
C2866      H2878   1.081   1_455  S
C2867      H2879   1.082       .  S
C2868      C2959   1.493       .  S
C2869      C2938   1.478       .  S
C2870      C2974   1.477       .  S
C2871      C2947   1.479       .  S
C2882      N2900   1.355       .  A
C2882      C2919   1.470       .  S
N2883      N2900   1.316       .  A
N2883      N2905   1.319       .  A
N2883     Co3946   2.096       .  S
C2884      N2909   1.357       .  A
C2884      C2922   1.486       .  S
C2884      H2929   1.082       .  S
H2885      C2926   1.081       .  S
C2886      N2910   1.339       .  A
C2886      C2890   1.476       .  S
C2886      H2915   1.082       .  S
Co2887     N3931   2.100   1_545  S
Co2887     N3921   2.127   1_545  S
Co2887     N2927   2.122       .  S
Co2887     N2903   2.073       .  S
Co2887    Cl2931   2.435       .  S
N2888      C2926   1.351       .  A
N2888      N2895   1.319       .  A
N2888     Co3915   2.088       .  S
Co2889     N3914   2.102   1_545  S
Co2889     N3918   2.114   1_545  S
Co2889     N2909   2.129       .  S
Co2889     N2896   2.114       .  S
Co2889    Cl2931   2.515       .  S
C2890      N2928   1.359       .  A
N2891      N2898   1.322       .  A
N2891      N2921   1.337       .  A
N2891     Co2924   2.096       .  S
N2892      N2910   1.320       .  A
N2892      N2928   1.335       .  A
N2892     Co3915   2.106       .  S
N2893      C2922   1.348       .  A
N2893      N2903   1.315       .  A
H2894      C2919   1.081       .  S
N2895      N2916   1.324       .  A
N2895     Co3913   2.124       .  S
N2896      N2914   1.323       .  A
N2896      N2901   1.334       .  A
C2897      N2901   1.360       .  A
C2897      C2925   1.465       .  S
N2898      C2913   1.344       .  A
N2898     Co3946   2.139       .  S
C2899      N2927   1.361       .  A
C2899      C2902   1.478       .  S
C2899      H2933   1.081       .  S
C2902      N2923   1.361       .  A
N2903      N2909   1.317       .  A
N2904      C2930   1.349       .  A
N2904      N2906   1.321       .  A
N2904     Co2920   2.122       .  S
N2905      C2919   1.354       .  A
N2905     Co3913   2.099       .  S
N2906      N2934   1.336       .  A
N2906     Co3950   2.129       .  S
H2907      C2930   1.080       .  S
H2908      C2925   1.082       .  S
N2910     Co2924   2.120       .  S
N2911      N2923   1.322       .  A
N2911      N2927   1.318       .  A
N2911     Co2920   2.112       .  S
C2912      N2916   1.358       .  A
C2912      C2926   1.468       .  S
C2913      C2932   1.481       .  S
C2913      H2917   1.081       .  S
N2914      C2925   1.333       .  A
N2914     Co3950   2.101       .  S
C2918      N2934   1.360       .  A
C2918      C2930   1.475       .  S
Co2920     N3909   2.096   1_545  S
Co2920     N3924   2.131   1_545  S
Co2920    Cl2931   2.471       .  S
N2921      C2932   1.355       .  A
Co2924     N3932   2.122       .  S
Co2924     N3940   2.091       .  S
Co2924    Cl3957   2.432       .  S
Cl2931    Co3950   2.441       .  S
C2935      C2936   1.406       .  A
C2935      C2940   1.396       .  A
C2936      H2941   1.084       .  S
C2936      C2937   1.401       .  A
C2937      C2938   1.404       .  A
C2937      O2942   1.372       .  S
C2938      C2939   1.407       .  A
C2939      H2943   1.083       .  S
C2939      C2940   1.387       .  A
C2940      O2944   1.372       .  S
O2942      H2946   0.991       .  S
O2944      H2945   0.992       .  S
C2947      C2948   1.392       .  A
C2947      C2952   1.408       .  A
C2948      H2953   1.085       .  S
C2948      C2949   1.379       .  A
C2949      C2950   1.417       .  A
C2949      O2954   1.369       .  S
C2950      C2951   1.399       .  A
C2951      H2955   1.083       .  S
C2951      C2952   1.404       .  A
C2952      O2956   1.363       .  S
O2954      H2958   0.992       .  S
O2956      H2957   0.991       .  S
C2959      C2960   1.408       .  A
C2959      C2964   1.406       .  A
C2960      H2965   1.078       .  S
C2960      C2961   1.389       .  A
C2961      C2962   1.400       .  A
C2961      O2966   1.373       .  S
C2962      C2963   1.410       .  A
C2963      H2967   1.084       .  S
C2963      C2964   1.408       .  A
C2964      O2968   1.378       .  S
O2966      H2970   0.992       .  S
O2968      H2969   0.992       .  S
C2971      C2972   1.413       .  A
C2971      C2976   1.401       .  A
C2972      H2977   1.072       .  S
C2972      C2973   1.381       .  A
C2973      C2974   1.394       .  A
C2973      O2978   1.374       .  S
C2974      C2975   1.400       .  A
C2975      H2979   1.072       .  S
C2975      C2976   1.408       .  A
C2976      O2980   1.370       .  S
O2978      H2982   0.992       .  S
O2980      H2981   0.992       .  S
C2983      C2984   1.404       .  A
C2983      C2988   1.408       .  A
C2984      H2989   1.083       .  S
C2984      C2985   1.412       .  A
C2985      C2986   1.411       .  A
C2985      O2990   1.370       .  S
C2986      C2987   1.404       .  A
C2987      H2991   1.084       .  S
C2987      C2988   1.391       .  A
C2988      O2992   1.371       .  S
O2990      H2994   0.992       .  S
O2992      H2993   0.992       .  S
C2995      C2996   1.401       .  A
C2995      C3000   1.416       .  A
C2996      H3001   1.084       .  S
C2996      C2997   1.399       .  A
C2997      C2998   1.417       .  A
C2997      O3002   1.371   1_545  S
C2998      C2999   1.401       .  A
C2999      H3003   1.082       .  S
C2999      C3000   1.405       .  A
C3000      O3004   1.370       .  S
O3002      H3006   0.992       .  S
O3004      H3005   0.991       .  S
C3007      C3008   1.405       .  A
C3007      C3012   1.412       .  A
C3008      H3013   1.083       .  S
C3008      C3009   1.401       .  A
C3009      C3010   1.415       .  A
C3009      O3014   1.372   1_545  S
C3010      C3011   1.395       .  A
C3011      H3015   1.077       .  S
C3011      C3012   1.398       .  A
C3012      O3016   1.370       .  S
O3014      H3018   0.992       .  S
O3016      H3017   0.992       .  S
C3019      C3020   1.405       .  A
C3019      C3024   1.416       .  A
C3020      H3025   1.083       .  S
C3020      C3021   1.408       .  A
C3021      C3022   1.405       .  A
C3021      O3026   1.365       .  S
C3022      C3023   1.392       .  A
C3023      H3027   1.084       .  S
C3023      C3024   1.378       .  A
C3024      O3028   1.372       .  S
O3026      H3030   0.990       .  S
O3028      H3029   0.992       .  S
C3031      C3032   1.406       .  A
C3031      C3036   1.401       .  A
C3032      H3037   1.084   1_556  S
C3032      C3033   1.398       .  A
C3033      C3034   1.407       .  A
C3033      O3038   1.371       .  S
C3034      C3035   1.406       .  A
C3035      H3039   1.083       .  S
C3035      C3036   1.403       .  A
C3036      O3040   1.371       .  S
O3038      H3042   0.992       .  S
O3040      H3041   0.991       .  S
C3043      C3044   1.395       .  A
C3043      C3048   1.412       .  A
C3044      H3049   1.080       .  S
C3044      C3045   1.396       .  A
C3045      C3046   1.412       .  A
C3045      O3050   1.372       .  S
C3046      C3047   1.401       .  A
C3047      H3051   1.084       .  S
C3047      C3048   1.397       .  A
C3048      O3052   1.371   1_556  S
O3050      H3054   0.992       .  S
O3052      H3053   0.991       .  S
C3055      C3056   1.398       .  A
C3055      C3060   1.411       .  A
C3056      H3061   1.085       .  S
C3056      C3057   1.383       .  A
C3057      C3058   1.410       .  A
C3057      O3062   1.374       .  S
C3058      C3059   1.405       .  A
C3059      H3063   1.083       .  S
C3059      C3060   1.408       .  A
C3060      O3064   1.371       .  S
O3062      H3066   0.991       .  S
O3064      H3065   0.991       .  S
C3067      C3068   1.406       .  A
C3067      C3072   1.408       .  A
C3068      H3073   1.080       .  S
C3068      C3069   1.388       .  A
C3069      C3070   1.404       .  A
C3069      O3074   1.374       .  S
C3070      C3071   1.411       .  A
C3071      H3075   1.077       .  S
C3071      C3072   1.411       .  A
C3072      O3076   1.374       .  S
O3074      H3078   0.992       .  S
O3076      H3077   0.991       .  S
C3079      N3097   1.355       .  A
C3079      C3116   1.463       .  S
C3079      C3264   1.482       .  S
N3080      N3097   1.325       .  A
N3080      N3102   1.318       .  A
N3080     Co3630   2.106   1_554  S
C3081      N3106   1.350       .  A
C3081      C3119   1.473       .  S
C3081      H3126   1.082       .  S
H3082      C3123   1.081       .  S
C3083      N3107   1.329       .  A
C3083      C3087   1.461       .  S
C3083      H3112   1.082       .  S
Co3084     N3615   2.091       .  S
Co3084     N3605   2.109       .  S
Co3084     N3124   2.129       .  S
Co3084     N3100   2.084       .  S
Co3084    Cl3641   2.452       .  S
N3085      C3123   1.358       .  A
N3085      N3092   1.323       .  A
N3085     Co3086   2.112   1_554  S
Co3086     N3089   2.154   1_556  S
Co3086     N3619   2.113       .  S
Co3086     N3606   2.153       .  S
Co3086    Cl3128   2.486       .  S
C3087      N3125   1.367       .  A
C3087      C3255   1.514       .  S
N3088      N3095   1.318       .  A
N3088      N3118   1.334       .  A
N3088     Co3121   2.090   1_554  S
N3089      N3107   1.322       .  A
N3089      N3125   1.344       .  A
N3090      C3119   1.351       .  A
N3090      N3100   1.317       .  A
H3091      C3116   1.082       .  S
N3092      N3113   1.321       .  A
N3092     Co3597   2.114   1_554  S
N3093      N3111   1.317       .  A
N3093      N3098   1.345       .  A
N3093     Co3599   2.146       .  S
C3094      N3098   1.373       .  A
C3094      C3122   1.459       .  S
C3094      C3284   1.514       .  S
N3095      C3110   1.329       .  A
N3095     Co3630   2.077   1_554  S
C3096      N3124   1.359       .  A
C3096      C3099   1.486       .  S
C3096      H3130   1.082       .  S
C3099      N3120   1.350       .  A
C3099      C3273   1.505       .  S
N3100      N3106   1.321       .  A
N3101      C3127   1.335       .  A
N3101      N3103   1.317       .  A
N3101     Co3117   2.073       .  S
N3102      C3116   1.346       .  A
N3102     Co3597   2.084   1_554  S
N3103      N3131   1.338       .  A
N3103     Co3634   2.148       .  S
H3104      C3127   1.082       .  S
H3105      C3122   1.073       .  S
N3106     Co3599   2.110       .  S
N3107     Co3121   2.079   1_554  S
N3108      N3120   1.322       .  A
N3108      N3124   1.316       .  A
N3108     Co3117   2.077       .  S
C3109      N3113   1.352       .  A
C3109      C3123   1.474       .  S
C3109      C3141   1.503       .  S
C3110      C3129   1.460       .  S
C3110      H3114   1.081       .  S
N3111      C3122   1.310       .  A
N3111     Co3634   2.052       .  S
C3115      N3131   1.369       .  A
C3115      C3127   1.461       .  S
C3115      C3152   1.498       .  S
Co3117     N3593   2.102       .  S
Co3117     N3608   2.080       .  S
Co3117    Cl3641   2.432       .  S
N3118      C3129   1.357       .  A
C3119      C3161   1.479       .  S
Co3121     N3616   2.143       .  S
Co3121     N3624   2.051       .  S
Co3121    Cl3128   2.464       .  S
Cl3128    Co3597   2.449       .  S
Cl3128    Co3630   2.434       .  S
C3129      C3132   1.488       .  S
C3132      C3133   1.410       .  A
C3132      C3137   1.428       .  A
C3133      H3138   1.081       .  S
C3133      C3134   1.385       .  A
C3134      C3580   1.485       .  S
C3134      C3135   1.391       .  A
C3135      H3139   1.083       .  S
C3135      C3136   1.409       .  A
C3136      C3232   1.497       .  S
C3136      C3137   1.425       .  A
C3137      H3140   1.083       .  S
C3141      C3142   1.431       .  A
C3141      C3146   1.412       .  A
C3142      H3147   1.082       .  S
C3142      C3143   1.429       .  A
C3143      C3242   1.496       .  S
C3143      C3144   1.405       .  A
C3144      H3148   1.086       .  S
C3144      C3145   1.385       .  A
C3145      C3571   1.475       .  S
C3145      C3146   1.394       .  A
C3146      H3149   1.084       .  S
C3150      C3252   1.501       .  S
C3150      C3151   1.427       .  A
C3150      C3155   1.405       .  A
C3151      H3156   1.083       .  S
C3151      C3152   1.429       .  A
C3152      C3153   1.402       .  A
C3153      H3157   1.086       .  S
C3153      C3154   1.393       .  A
C3154      C3559   1.475       .  S
C3154      C3155   1.396       .  A
C3155      H3158   1.084       .  S
C3159      C3238   1.483       .  S
C3159      C3160   1.417       .  A
C3159      C3164   1.409       .  A
C3160      H3165   1.083       .  S
C3160      C3161   1.414       .  A
C3161      C3162   1.403       .  A
C3162      H3166   1.086       .  S
C3162      C3163   1.386       .  A
C3163      C3547   1.470       .  S
C3163      C3164   1.394       .  A
C3164      H3167   1.084       .  S
N3168      C3173   1.348       .  A
N3168      H3200   1.043       .  S
N3169      C3689   1.355       .  A
N3169      C3177   1.344       .  A
N3170      C3175   1.361       .  A
N3170      H3201   1.037       .  S
N3171      C3691   1.356       .  A
N3171      C3179   1.343       .  A
C3172      C3180   1.378       .  A
C3172      C3188   1.396       .  A
C3173      C3189   1.401       .  A
C3173      C3181   1.386       .  A
C3174      C3182   1.387       .  A
C3174      C3191   1.432       .  A
C3175      C3190   1.427       .  A
C3175      C3183   1.386       .  A
C3176      N3682   1.355       .  A
C3176      C3188   1.407       .  A
C3176      C3184   1.379       .  A
C3177      C3191   1.422       .  A
C3177      C3185   1.396       .  A
C3178      N3684   1.355       .  A
C3178      C3186   1.376       .  A
C3178      C3189   1.400       .  A
C3179      C3187   1.397       .  A
C3179      C3190   1.420       .  A
C3180      H3192   1.069       .  S
C3181      H3193   1.083       .  S
C3182      H3194   1.083       .  S
C3183      H3195   1.083       .  S
C3184      H3196   1.082       .  S
C3184      C3698   1.371       .  A
C3185      H3197   1.082       .  S
C3185      C3697   1.373       .  A
C3186      H3198   1.082       .  S
C3186      C3700   1.370       .  A
C3187      H3199   1.080       .  S
C3187      C3699   1.371       .  A
C3188      C3556   1.480       .  S
C3189      C3544   1.482       .  S
C3190      C3568   1.482       .  S
C3191      C3583   1.494       .  S
C3202      N3220   1.352       .  A
C3202      C3239   1.484       .  S
C3202      C3343   1.516       .  S
N3203      N3220   1.319       .  A
N3203      N3225   1.318       .  A
C3204      N3229   1.360       .  A
C3204      C3242   1.476       .  S
C3204      H3249   1.081       .  S
H3205      C3246   1.074       .  S
C3206      N3230   1.331       .  A
C3206      C3210   1.466       .  S
C3206      H3235   1.082       .  S
Co3207     N3247   2.109       .  S
Co3207     N3223   2.089       .  S
Co3207    Cl3251   2.482       .  S
N3208      C3246   1.358       .  A
N3208      N3215   1.319       .  A
Co3209     N3229   2.128       .  S
Co3209     N3216   2.145       .  S
Co3209    Cl3251   2.475       .  S
C3210      N3248   1.354       .  A
C3210      C3325   1.490       .  S
N3211      N3218   1.319       .  A
N3211      N3241   1.334       .  A
N3212      N3230   1.321       .  A
N3212      N3248   1.333       .  A
N3213      C3242   1.349       .  A
N3213      N3223   1.314       .  A
H3214      C3239   1.078       .  S
N3215      N3236   1.313       .  A
N3216      N3234   1.320       .  A
N3216      N3221   1.340       .  A
C3217      N3221   1.369       .  A
C3217      C3245   1.465       .  S
C3217      C3354   1.510       .  S
N3218      C3233   1.342       .  A
C3219      N3247   1.361       .  A
C3219      C3222   1.482       .  S
C3219      H3253   1.082       .  S
C3222      N3243   1.344       .  A
C3222      C3336   1.493       .  S
N3223      N3229   1.325       .  A
N3224      C3250   1.335       .  A
N3224      N3226   1.316       .  A
N3224     Co3240   2.079   1_655  S
N3225      C3239   1.365       .  A
N3226      N3254   1.332       .  A
N3226     Co3244   2.094       .  S
H3227      C3250   1.082       .  S
H3228      C3245   1.082       .  S
N3231      N3243   1.310       .  A
N3231      N3247   1.314       .  A
N3231     Co3240   2.064   1_655  S
C3232      N3236   1.349       .  A
C3232      C3246   1.477       .  S
C3233      C3252   1.472       .  S
C3233      H3237   1.082       .  S
N3234      C3245   1.332       .  A
N3234     Co3244   2.089       .  S
C3238      N3254   1.357       .  A
C3238      C3250   1.459       .  S
Co3240    Cl3251   2.417   1_455  S
N3241      C3252   1.362       .  A
Co3244    Cl3251   2.462       .  S
C3255      C3256   1.410       .  A
C3255      C3260   1.438       .  A
C3256      H3261   1.084       .  S
C3256      C3257   1.391       .  A
C3257      C3532   1.479       .  S
C3257      C3258   1.389       .  A
C3258      H3262   1.084       .  S
C3258      C3259   1.406       .  A
C3259      C3425   1.505       .  S
C3259      C3260   1.440       .  A
C3260      H3263   1.082       .  S
C3264      C3265   1.420       .  A
C3264      C3269   1.406       .  A
C3265      H3270   1.083       .  S
C3265      C3266   1.416       .  A
C3266      C3435   1.484       .  S
C3266      C3267   1.402       .  A
C3267      H3271   1.086       .  S
C3267      C3268   1.390       .  A
C3268      C3520   1.481       .  S
C3268      C3269   1.398       .  A
C3269      H3272   1.084       .  S
C3273      C3274   1.411       .  A
C3273      C3278   1.426       .  A
C3274      H3279   1.084       .  S
C3274      C3275   1.398       .  A
C3275      C3508   1.498       .  S
C3275      C3276   1.409       .  A
C3276      H3280   1.082       .  S
C3276      C3277   1.410       .  A
C3277      C3431   1.511       .  S
C3277      C3278   1.427       .  A
C3278      H3281   1.083       .  S
C3282      C3445   1.512       .  S
C3282      C3283   1.438       .  A
C3282      C3287   1.412       .  A
C3283      H3288   1.082       .  S
C3283      C3284   1.435       .  A
C3284      C3285   1.411       .  A
C3285      H3289   1.085       .  S
C3285      C3286   1.389       .  A
C3286      C3499   1.492       .  S
C3286      C3287   1.401       .  A
C3287      H3290   1.079       .  S
N3291      C3809   1.337       .  A
N3291      C3295   1.349       .  A
N3291      H3323   1.045       .  S
N3292      C3300   1.343       .  A
N3293      C3811   1.360       .  A
N3293      C3297   1.358       .  A
N3293      H3324   1.040       .  S
N3294      C3302   1.345       .  A
C3295      C3303   1.385       .  A
C3295      C3311   1.401       .  A
C3296      N3804   1.336       .  A
C3296      C3312   1.395       .  A
C3296      C3304   1.390       .  A
C3297      C3305   1.388       .  A
C3297      C3314   1.421       .  A
C3298      N3806   1.360       .  A
C3298      C3313   1.416       .  A
C3298      C3306   1.383       .  A
C3299      C3311   1.404       .  A
C3299      C3307   1.379       .  A
C3300      C3314   1.418       .  A
C3300      C3308   1.394       .  A
C3301      C3309   1.365       .  A
C3301      C3312   1.403       .  A
C3302      C3310   1.387       .  A
C3302      C3313   1.418       .  A
C3303      H3315   1.082       .  S
C3303      C3817   1.371       .  A
C3304      H3316   1.083       .  S
C3304      C3816   1.370       .  A
C3305      H3317   1.083       .  S
C3305      C3819   1.376       .  A
C3306      H3318   1.082       .  S
C3306      C3818   1.374       .  A
C3307      H3319   1.083       .  S
C3308      H3320   1.081       .  S
C3309      H3321   1.071       .  S
C3310      H3322   1.080       .  S
C3311      C3523   1.484       .  S
C3312      C3511   1.506       .  S
C3313      C3496   1.493       .  S
C3314      C3535   1.479       .  S
C3325      C3326   1.431       .  A
C3325      C3330   1.405       .  A
C3326      H3331   1.081       .  S
C3326      C3327   1.434       .  A
C3327      C3395   1.489       .  S
C3327      C3328   1.412       .  A
C3328      H3332   1.085       .  S
C3328      C3329   1.392       .  A
C3329      C3484   1.494       .  S
C3329      C3330   1.381       .  A
C3330      H3333   1.083       .  S
C3334      C3410   1.489       .  S
C3334      C3335   1.428       .  A
C3334      C3339   1.409       .  A
C3335      H3340   1.083       .  S
C3335      C3336   1.423       .  A
C3336      C3337   1.406       .  A
C3337      H3341   1.084       .  S
C3337      C3338   1.381       .  A
C3338      C3475   1.475       .  S
C3338      C3339   1.384       .  A
C3339      H3342   1.082       .  S
C3343      C3344   1.413       .  A
C3343      C3348   1.443       .  A
C3344      H3349   1.083       .  S
C3344      C3345   1.386       .  A
C3345      C3463   1.481       .  S
C3345      C3346   1.383       .  A
C3346      H3350   1.086       .  S
C3346      C3347   1.403       .  A
C3347      C3415   1.508       .  S
C3347      C3348   1.447       .  A
C3348      H3351   1.081       .  S
C3352      C3403   1.498       .  S
C3352      C3353   1.435       .  A
C3352      C3357   1.403       .  A
C3353      H3358   1.082       .  S
C3353      C3354   1.432       .  A
C3354      C3355   1.407       .  A
C3355      H3359   1.084       .  S
C3355      C3356   1.387       .  A
C3356      C3448   1.465       .  S
C3356      C3357   1.383       .  A
C3357      H3360   1.084       .  S
N3361      C3366   1.346   1_545  A
N3361      H3393   1.028   1_655  S
N3362      C3369   1.357       .  A
N3363      C3368   1.353   1_545  A
N3363      H3394   1.035       .  S
N3364      C3371   1.350       .  A
C3365      C3373   1.388       .  A
C3365      C3381   1.414       .  A
C3366      C3382   1.405       .  A
C3366      C3374   1.383       .  A
C3367      C3375   1.386       .  A
C3367      C3384   1.411       .  A
C3368      C3383   1.417       .  A
C3368      C3376   1.386       .  A
C3369      C3381   1.422   1_455  A
C3369      C3377   1.387       .  A
C3370      C3384   1.415       .  A
C3370      C3378   1.384       .  A
C3371      C3379   1.387       .  A
C3371      C3382   1.410   1_455  A
C3372      C3380   1.385       .  A
C3372      C3383   1.409       .  A
C3373      H3385   1.083       .  S
C3374      H3386   1.082       .  S
C3375      H3387   1.080       .  S
C3376      H3388   1.078       .  S
C3377      H3389   1.073       .  S
C3378      H3390   1.082       .  S
C3379      H3391   1.082   1_455  S
C3380      H3392   1.081       .  S
C3381      C3472   1.493       .  S
C3382      C3451   1.483       .  S
C3383      C3487   1.478       .  S
C3384      C3460   1.480       .  S
C3395      N3413   1.355       .  A
C3395      C3432   1.470       .  S
N3396      N3413   1.317       .  A
N3396      N3418   1.318       .  A
C3397      N3422   1.352       .  A
C3397      C3435   1.479       .  S
C3397      H3442   1.081       .  S
H3398      C3439   1.081       .  S
C3399      N3423   1.339       .  A
C3399      C3403   1.474       .  S
C3399      H3428   1.082       .  S
Co3400     N3440   2.123       .  S
Co3400     N3416   2.077       .  S
Co3400    Cl3444   2.438       .  S
N3401      C3439   1.356       .  A
N3401      N3408   1.320       .  A
Co3402     N3422   2.112       .  S
Co3402     N3409   2.103       .  S
Co3402    Cl3444   2.510       .  S
C3403      N3441   1.357       .  A
N3404      N3411   1.322       .  A
N3404      N3434   1.337       .  A
N3404     Co3437   2.112   1_565  S
N3405      N3423   1.321       .  A
N3405      N3441   1.333       .  A
N3406      C3435   1.352       .  A
N3406      N3416   1.316       .  A
H3407      C3432   1.081       .  S
N3408      N3429   1.325       .  A
N3409      N3427   1.321       .  A
N3409      N3414   1.333       .  A
C3410      N3414   1.358       .  A
C3410      C3438   1.467       .  S
N3411      C3426   1.341       .  A
C3412      N3440   1.359       .  A
C3412      C3415   1.478       .  S
C3412      H3446   1.082       .  S
C3415      N3436   1.361       .  A
N3416      N3422   1.316       .  A
N3417      C3443   1.347       .  A
N3417      N3419   1.322       .  A
N3417     Co3433   2.119       .  S
N3418      C3432   1.354       .  A
N3419      N3447   1.336       .  A
H3420      C3443   1.081       .  S
H3421      C3438   1.082       .  S
N3423     Co3437   2.115   1_565  S
N3424      N3436   1.322       .  A
N3424      N3440   1.317       .  A
N3424     Co3433   2.104       .  S
C3425      N3429   1.359       .  A
C3425      C3439   1.475       .  S
C3426      C3445   1.474       .  S
C3426      H3430   1.080       .  S
N3427      C3438   1.332       .  A
C3431      N3447   1.360       .  A
C3431      C3443   1.473       .  S
Co3433    Cl3444   2.466       .  S
N3434      C3445   1.358       .  A
C3448      C3449   1.407       .  A
C3448      C3453   1.397       .  A
C3449      H3454   1.084       .  S
C3449      C3450   1.403       .  A
C3450      C3451   1.404       .  A
C3450      O3455   1.371       .  S
C3451      C3452   1.408       .  A
C3452      H3456   1.084       .  S
C3452      C3453   1.389       .  A
C3453      O3457   1.372       .  S
O3455      H3459   0.992       .  S
O3457      H3458   0.990       .  S
C3460      C3461   1.390       .  A
C3460      C3465   1.406       .  A
C3461      H3466   1.085       .  S
C3461      C3462   1.380       .  A
C3462      C3463   1.420       .  A
C3462      O3467   1.368       .  S
C3463      C3464   1.398       .  A
C3464      H3468   1.083       .  S
C3464      C3465   1.405       .  A
C3465      O3469   1.362       .  S
O3467      H3471   0.992       .  S
O3469      H3470   0.991       .  S
C3472      C3473   1.407       .  A
C3472      C3477   1.405       .  A
C3473      H3478   1.078       .  S
C3473      C3474   1.389       .  A
C3474      C3475   1.400       .  A
C3474      O3479   1.372       .  S
C3475      C3476   1.409       .  A
C3476      H3480   1.084       .  S
C3476      C3477   1.407       .  A
C3477      O3481   1.375       .  S
O3479      H3483   0.992       .  S
O3481      H3482   0.993       .  S
C3484      C3485   1.413       .  A
C3484      C3489   1.401       .  A
C3485      H3490   1.071       .  S
C3485      C3486   1.380       .  A
C3486      C3487   1.393       .  A
C3486      O3491   1.374       .  S
C3487      C3488   1.401       .  A
C3488      H3492   1.071       .  S
C3488      C3489   1.410       .  A
C3489      O3493   1.369       .  S
O3491      H3495   0.992       .  S
O3493      H3494   0.992       .  S
C3496      C3497   1.402       .  A
C3496      C3501   1.408       .  A
C3497      H3502   1.083       .  S
C3497      C3498   1.414       .  A
C3498      C3499   1.414       .  A
C3498      O3503   1.369       .  S
C3499      C3500   1.404       .  A
C3500      H3504   1.084       .  S
C3500      C3501   1.391       .  A
C3501      O3505   1.371       .  S
O3503      H3507   0.992       .  S
O3505      H3506   0.992       .  S
C3508      C3509   1.400       .  A
C3508      C3513   1.418       .  A
C3509      H3514   1.084       .  S
C3509      C3510   1.399       .  A
C3510      C3511   1.416       .  A
C3510      O3515   1.369       .  S
C3511      C3512   1.401       .  A
C3512      H3516   1.080       .  S
C3512      C3513   1.407       .  A
C3513      O3517   1.370       .  S
O3515      H3519   0.991       .  S
O3517      H3518   0.991       .  S
C3520      C3521   1.403       .  A
C3520      C3525   1.413       .  A
C3521      H3526   1.084       .  S
C3521      C3522   1.398       .  A
C3522      C3523   1.414       .  A
C3522      O3527   1.372       .  S
C3523      C3524   1.396       .  A
C3524      H3528   1.077       .  S
C3524      C3525   1.394       .  A
C3525      O3529   1.372       .  S
O3527      H3531   0.992       .  S
O3529      H3530   0.992       .  S
C3532      C3533   1.406       .  A
C3532      C3537   1.413       .  A
C3533      H3538   1.083       .  S
C3533      C3534   1.409       .  A
C3534      C3535   1.409       .  A
C3534      O3539   1.369       .  S
C3535      C3536   1.394       .  A
C3536      H3540   1.085       .  S
C3536      C3537   1.379       .  A
C3537      O3541   1.373       .  S
O3539      H3543   0.990       .  S
O3541      H3542   0.992       .  S
C3544      C3545   1.407       .  A
C3544      C3549   1.402       .  A
C3545      H3550   1.084       .  S
C3545      C3546   1.398       .  A
C3546      C3547   1.403       .  A
C3546      O3551   1.371       .  S
C3547      C3548   1.405       .  A
C3548      H3552   1.084       .  S
C3548      C3549   1.400       .  A
C3549      O3553   1.371       .  S
O3551      H3555   0.992       .  S
O3553      H3554   0.991       .  S
C3556      C3557   1.396       .  A
C3556      C3561   1.411       .  A
C3557      H3562   1.081       .  S
C3557      C3558   1.397       .  A
C3558      C3559   1.412       .  A
C3558      O3563   1.372       .  S
C3559      C3560   1.401       .  A
C3560      H3564   1.084       .  S
C3560      C3561   1.399       .  A
C3561      O3565   1.371       .  S
O3563      H3567   0.992       .  S
O3565      H3566   0.991       .  S
C3568      C3569   1.397       .  A
C3568      C3573   1.409       .  A
C3569      H3574   1.085       .  S
C3569      C3570   1.383       .  A
C3570      C3571   1.410       .  A
C3570      O3575   1.374       .  S
C3571      C3572   1.406       .  A
C3572      H3576   1.083       .  S
C3572      C3573   1.410       .  A
C3573      O3577   1.371       .  S
O3575      H3579   0.992       .  S
O3577      H3578   0.991       .  S
C3580      C3581   1.404       .  A
C3580      C3585   1.410       .  A
C3581      H3586   1.081       .  S
C3581      C3582   1.387       .  A
C3582      C3583   1.404       .  A
C3582      O3587   1.373       .  S
C3583      C3584   1.409       .  A
C3584      H3588   1.079       .  S
C3584      C3585   1.412       .  A
C3585      O3589   1.375       .  S
O3587      H3591   0.991       .  S
O3589      H3590   0.991       .  S
C3592      N3610   1.355       .  A
C3592      C3629   1.464       .  S
C3592      C3777   1.484       .  S
N3593      N3610   1.325       .  A
N3593      N3615   1.319       .  A
C3594      N3619   1.349       .  A
C3594      C3632   1.474       .  S
C3594      H3639   1.081       .  S
H3595      C3636   1.081       .  S
C3596      N3620   1.330       .  A
C3596      C3600   1.463       .  S
C3596      H3625   1.081       .  S
Co3597     N3637   2.130       .  S
Co3597     N3613   2.075       .  S
N3598      C3636   1.357       .  A
N3598      N3605   1.322       .  A
N3598     Co3599   2.112       .  S
Co3599     N3602   2.145       .  S
Co3599    Cl3641   2.481       .  S
C3600      N3638   1.363       .  A
C3600      C3768   1.507       .  S
N3601      N3608   1.318       .  A
N3601      N3631   1.334       .  A
N3601     Co3634   2.091       .  S
N3602      N3620   1.323       .  A
N3602      N3638   1.342       .  A
N3603      C3632   1.349       .  A
N3603      N3613   1.316       .  A
H3604      C3629   1.082       .  S
N3605      N3626   1.320       .  A
N3606      N3624   1.317       .  A
N3606      N3611   1.347       .  A
C3607      N3611   1.375       .  A
C3607      C3635   1.458       .  S
C3607      C3797   1.519       .  S
N3608      C3623   1.330       .  A
C3609      N3637   1.359       .  A
C3609      C3612   1.485       .  S
C3609      H3643   1.082       .  S
C3612      N3633   1.350       .  A
C3612      C3786   1.504       .  S
N3613      N3619   1.321       .  A
N3614      C3640   1.336       .  A
N3614      N3616   1.318       .  A
N3614     Co3630   2.080       .  S
N3615      C3629   1.346       .  A
N3616      N3644   1.337       .  A
H3617      C3640   1.082       .  S
H3618      C3635   1.073       .  S
N3620     Co3634   2.081       .  S
N3621      N3633   1.322       .  A
N3621      N3637   1.316       .  A
N3621     Co3630   2.078       .  S
C3622      N3626   1.351       .  A
C3622      C3636   1.475       .  S
C3622      C3654   1.501       .  S
C3623      C3642   1.461       .  S
C3623      H3627   1.081       .  S
N3624      C3635   1.308       .  A
C3628      N3644   1.367       .  A
C3628      C3640   1.464       .  S
C3628      C3665   1.499       .  S
N3631      C3642   1.357       .  A
C3632      C3674   1.475       .  S
Co3634    Cl3641   2.471       .  S
C3642      C3645   1.489       .  S
C3645      C3646   1.410       .  A
C3645      C3650   1.427       .  A
C3646      H3651   1.081       .  S
C3646      C3647   1.386       .  A
C3647      C4093   1.484       .  S
C3647      C3648   1.391       .  A
C3648      H3652   1.083       .  S
C3648      C3649   1.409       .  A
C3649      C3745   1.494       .  S
C3649      C3650   1.423       .  A
C3650      H3653   1.083       .  S
C3654      C3655   1.430       .  A
C3654      C3659   1.413       .  A
C3655      H3660   1.082       .  S
C3655      C3656   1.428       .  A
C3656      C3755   1.495       .  S
C3656      C3657   1.405       .  A
C3657      H3661   1.086       .  S
C3657      C3658   1.386       .  A
C3658      C4084   1.476       .  S
C3658      C3659   1.394       .  A
C3659      H3662   1.084       .  S
C3663      C3765   1.503       .  S
C3663      C3664   1.427       .  A
C3663      C3668   1.409       .  A
C3664      H3669   1.083       .  S
C3664      C3665   1.428       .  A
C3665      C3666   1.403       .  A
C3666      H3670   1.085       .  S
C3666      C3667   1.394       .  A
C3667      C4072   1.479       .  S
C3667      C3668   1.399       .  A
C3668      H3671   1.084       .  S
C3672      C3751   1.479       .  S
C3672      C3673   1.413       .  A
C3672      C3677   1.410       .  A
C3673      H3678   1.083       .  S
C3673      C3674   1.410       .  A
C3674      C3675   1.403       .  A
C3675      H3679   1.086       .  S
C3675      C3676   1.386       .  A
C3676      C4060   1.472       .  S
C3676      C3677   1.396       .  A
C3677      H3680   1.083       .  S
N3681      C3686   1.349       .  A
N3681      H3713   1.043       .  S
N3682      C3690   1.345       .  A
N3683      C3688   1.363   1_455  A
N3683      H3714   1.038       .  S
N3684      C3692   1.342       .  A
C3685      C3693   1.381       .  A
C3685      C3701   1.395       .  A
C3686      C3702   1.400       .  A
C3686      C3694   1.384       .  A
C3687      C3695   1.386       .  A
C3687      C3704   1.429       .  A
C3688      C3703   1.428       .  A
C3688      C3696   1.386       .  A
C3689      C3701   1.407   1_554  A
C3689      C3697   1.377       .  A
C3690      C3704   1.423       .  A
C3690      C3698   1.395       .  A
C3691      C3699   1.376       .  A
C3691      C3702   1.402   1_554  A
C3692      C3700   1.398       .  A
C3692      C3703   1.420       .  A
C3693      H3705   1.074       .  S
C3694      H3706   1.082       .  S
C3695      H3707   1.083       .  S
C3696      H3708   1.083       .  S
C3697      H3709   1.082   1_554  S
C3698      H3710   1.081       .  S
C3699      H3711   1.083       .  S
C3700      H3712   1.080       .  S
C3701      C4069   1.483       .  S
C3702      C4057   1.481       .  S
C3703      C4081   1.484       .  S
C3704      C4096   1.493       .  S
C3715      N3733   1.353       .  A
C3715      C3752   1.483       .  S
C3715      C3856   1.517       .  S
N3716      N3733   1.319       .  A
N3716      N3738   1.318       .  A
C3717      N3742   1.360       .  A
C3717      C3755   1.475       .  S
C3717      H3762   1.081       .  S
H3718      C3759   1.072       .  S
C3719      N3743   1.334       .  A
C3719      C3723   1.469       .  S
C3719      H3748   1.082       .  S
Co3720     N3760   2.119       .  S
Co3720     N3736   2.091       .  S
Co3720    Cl3764   2.481       .  S
N3721      C3759   1.356       .  A
N3721      N3728   1.319       .  A
Co3722     N3742   2.126       .  S
Co3722     N3729   2.148       .  S
Co3722    Cl3764   2.479       .  S
C3723      N3761   1.356       .  A
C3723      C3838   1.496       .  S
N3724      N3731   1.318       .  A
N3724      N3754   1.336       .  A
N3725      N3743   1.323       .  A
N3725      N3761   1.335       .  A
N3726      C3755   1.349       .  A
N3726      N3736   1.314       .  A
H3727      C3752   1.076       .  S
N3728      N3749   1.311       .  A
N3729      N3747   1.320       .  A
N3729      N3734   1.342       .  A
C3730      N3734   1.370       .  A
C3730      C3758   1.466       .  S
C3730      C3867   1.515       .  S
N3731      C3746   1.341       .  A
C3732      N3760   1.366       .  A
C3732      C3735   1.487       .  S
C3732      H3766   1.082       .  S
C3735      N3756   1.340       .  A
C3735      C3849   1.496       .  S
N3736      N3742   1.325       .  A
N3737      C3763   1.335       .  A
N3737      N3739   1.315       .  A
N3737     Co3753   2.070   1_655  S
N3738      C3752   1.364       .  A
N3739      N3767   1.331       .  A
N3739     Co3757   2.098       .  S
H3740      C3763   1.082       .  S
H3741      C3758   1.082       .  S
N3744      N3756   1.307       .  A
N3744      N3760   1.314       .  A
N3744     Co3753   2.055   1_655  S
C3745      N3749   1.347       .  A
C3745      C3759   1.476       .  S
C3746      C3765   1.468       .  S
C3746      H3750   1.082       .  S
N3747      C3758   1.332       .  A
N3747     Co3757   2.090       .  S
C3751      N3767   1.357       .  A
C3751      C3763   1.455       .  S
Co3753    Cl3764   2.419   1_455  S
N3754      C3765   1.365       .  A
Co3757    Cl3764   2.457       .  S
C3768      C3769   1.407       .  A
C3768      C3773   1.435       .  A
C3769      H3774   1.085       .  S
C3769      C3770   1.390       .  A
C3770      C4045   1.478       .  S
C3770      C3771   1.391       .  A
C3771      H3775   1.084       .  S
C3771      C3772   1.407       .  A
C3772      C3938   1.501       .  S
C3772      C3773   1.436       .  A
C3773      H3776   1.082       .  S
C3777      C3778   1.419       .  A
C3777      C3782   1.407       .  A
C3778      H3783   1.083       .  S
C3778      C3779   1.415       .  A
C3779      C3948   1.486       .  S
C3779      C3780   1.405       .  A
C3780      H3784   1.086       .  S
C3780      C3781   1.392       .  A
C3781      C4033   1.485       .  S
C3781      C3782   1.400       .  A
C3782      H3785   1.084       .  S
C3786      C3787   1.409       .  A
C3786      C3791   1.426       .  A
C3787      H3792   1.084       .  S
C3787      C3788   1.397       .  A
C3788      C4021   1.495       .  S
C3788      C3789   1.407       .  A
C3789      H3793   1.080       .  S
C3789      C3790   1.409       .  A
C3790      C3944   1.509       .  S
C3790      C3791   1.428       .  A
C3791      H3794   1.083       .  S
C3795      C3958   1.514       .  S
C3795      C3796   1.442       .  A
C3795      C3800   1.411       .  A
C3796      H3801   1.082       .  S
C3796      C3797   1.438       .  A
C3797      C3798   1.410       .  A
C3798      H3802   1.085       .  S
C3798      C3799   1.389       .  A
C3799      C4012   1.493       .  S
C3799      C3800   1.402       .  A
C3800      H3803   1.078       .  S
N3804      C3808   1.349       .  A
N3804      H3836   1.044       .  S
N3805      C3813   1.343       .  A
N3806      C3810   1.358       .  A
N3806      H3837   1.039       .  S
N3807      C3815   1.344       .  A
C3808      C3816   1.385       .  A
C3808      C3824   1.401       .  A
C3809      C3825   1.395   1_554  A
C3809      C3817   1.389       .  A
C3810      C3818   1.388       .  A
C3810      C3827   1.422       .  A
C3811      C3826   1.417   1_554  A
C3811      C3819   1.383       .  A
C3812      C3824   1.406       .  A
C3812      C3820   1.380       .  A
C3813      C3827   1.419       .  A
C3813      C3821   1.395       .  A
C3814      C3822   1.366       .  A
C3814      C3825   1.404       .  A
C3815      C3823   1.389       .  A
C3815      C3826   1.416       .  A
C3816      H3828   1.082       .  S
C3817      H3829   1.083       .  S
C3818      H3830   1.083       .  S
C3819      H3831   1.082       .  S
C3820      H3832   1.083       .  S
C3821      H3833   1.081       .  S
C3822      H3834   1.070       .  S
C3823      H3835   1.081       .  S
C3824      C4036   1.485       .  S
C3825      C4024   1.503       .  S
C3826      C4009   1.493       .  S
C3827      C4048   1.478       .  S
C3838      C3839   1.433       .  A
C3838      C3843   1.406       .  A
C3839      H3844   1.081       .  S
C3839      C3840   1.436       .  A
C3840      C3908   1.494       .  S
C3840      C3841   1.412       .  A
C3841      H3845   1.085       .  S
C3841      C3842   1.394       .  A
C3842      C3997   1.493       .  S
C3842      C3843   1.382       .  A
C3843      H3846   1.083       .  S
C3847      C3923   1.490       .  S
C3847      C3848   1.429       .  A
C3847      C3852   1.411       .  A
C3848      H3853   1.083       .  S
C3848      C3849   1.423       .  A
C3849      C3850   1.409       .  A
C3850      H3854   1.084       .  S
C3850      C3851   1.379       .  A
C3851      C3988   1.476       .  S
C3851      C3852   1.382       .  A
C3852      H3855   1.080       .  S
C3856      C3857   1.412       .  A
C3856      C3861   1.445       .  A
C3857      H3862   1.083       .  S
C3857      C3858   1.384       .  A
C3858      C3976   1.480       .  S
C3858      C3859   1.382       .  A
C3859      H3863   1.086       .  S
C3859      C3860   1.402       .  A
C3860      C3928   1.510       .  S
C3860      C3861   1.449       .  A
C3861      H3864   1.081       .  S
C3865      C3916   1.504       .  S
C3865      C3866   1.439       .  A
C3865      C3870   1.405       .  A
C3866      H3871   1.082       .  S
C3866      C3867   1.435       .  A
C3867      C3868   1.407       .  A
C3868      H3872   1.084       .  S
C3868      C3869   1.387       .  A
C3869      C3961   1.467       .  S
C3869      C3870   1.382       .  A
C3870      H3873   1.084       .  S
N3874      C3879   1.344   1_545  A
N3874      H3906   1.032   1_655  S
N3875      C3882   1.358       .  A
N3876      C3881   1.352   1_545  A
N3876      H3907   1.028       .  S
N3877      C3884   1.352       .  A
C3878      C3886   1.388       .  A
C3878      C3894   1.409       .  A
C3879      C3895   1.400       .  A
C3879      C3887   1.382       .  A
C3880      C3888   1.385       .  A
C3880      C3897   1.410       .  A
C3881      C3896   1.418       .  A
C3881      C3889   1.386       .  A
C3882      C3894   1.421   1_455  A
C3882      C3890   1.388       .  A
C3883      C3897   1.415       .  A
C3883      C3891   1.385       .  A
C3884      C3892   1.385       .  A
C3884      C3895   1.409   1_455  A
C3885      C3893   1.388       .  A
C3885      C3896   1.412       .  A
C3886      H3898   1.083       .  S
C3887      H3899   1.082       .  S
C3888      H3900   1.077       .  S
C3889      H3901   1.077       .  S
C3890      H3902   1.074       .  S
C3891      H3903   1.082       .  S
C3892      H3904   1.082   1_455  S
C3893      H3905   1.081       .  S
C3894      C3985   1.495       .  S
C3895      C3964   1.483       .  S
C3896      C4000   1.480       .  S
C3897      C3973   1.476       .  S
C3908      N3926   1.355       .  A
C3908      C3945   1.471       .  S
N3909      N3926   1.316       .  A
N3909      N3931   1.318       .  A
C3910      N3935   1.354       .  A
C3910      C3948   1.482       .  S
C3910      H3955   1.082       .  S
H3911      C3952   1.081       .  S
C3912      N3936   1.339       .  A
C3912      C3916   1.473       .  S
C3912      H3941   1.082       .  S
Co3913     N3953   2.116       .  S
Co3913     N3929   2.073       .  S
Co3913    Cl3957   2.431       .  S
N3914      C3952   1.354       .  A
N3914      N3921   1.320       .  A
Co3915     N3935   2.117       .  S
Co3915     N3922   2.101       .  S
Co3915    Cl3957   2.516       .  S
C3916      N3954   1.361       .  A
N3917      N3924   1.322       .  A
N3917      N3947   1.337       .  A
N3917     Co3950   2.107   1_565  S
N3918      N3936   1.321       .  A
N3918      N3954   1.336       .  A
N3919      C3948   1.349       .  A
N3919      N3929   1.314       .  A
H3920      C3945   1.081       .  S
N3921      N3942   1.325       .  A
N3922      N3940   1.320       .  A
N3922      N3927   1.334       .  A
C3923      N3927   1.359       .  A
C3923      C3951   1.464       .  S
N3924      C3939   1.344       .  A
C3925      N3953   1.359       .  A
C3925      C3928   1.476       .  S
C3925      H3959   1.082       .  S
C3928      N3949   1.363       .  A
N3929      N3935   1.316       .  A
N3930      C3956   1.348       .  A
N3930      N3932   1.321       .  A
N3930     Co3946   2.122       .  S
N3931      C3945   1.355       .  A
N3932      N3960   1.335       .  A
H3933      C3956   1.081       .  S
H3934      C3951   1.081       .  S
N3936     Co3950   2.114   1_565  S
N3937      N3949   1.323       .  A
N3937      N3953   1.318       .  A
N3937     Co3946   2.117       .  S
C3938      N3942   1.358       .  A
C3938      C3952   1.472       .  S
C3939      C3958   1.477       .  S
C3939      H3943   1.080       .  S
N3940      C3951   1.329       .  A
C3944      N3960   1.359       .  A
C3944      C3956   1.476       .  S
Co3946    Cl3957   2.473       .  S
N3947      C3958   1.357       .  A
C3961      C3962   1.407       .  A
C3961      C3966   1.398       .  A
C3962      H3967   1.083       .  S
C3962      C3963   1.404       .  A
C3963      C3964   1.404       .  A
C3963      O3968   1.371       .  S
C3964      C3965   1.407       .  A
C3965      H3969   1.083       .  S
C3965      C3966   1.390       .  A
C3966      O3970   1.372       .  S
O3968      H3972   0.991       .  S
O3970      H3971   0.992       .  S
C3973      C3974   1.390       .  A
C3973      C3978   1.405       .  A
C3974      H3979   1.085       .  S
C3974      C3975   1.380       .  A
C3975      C3976   1.421       .  A
C3975      O3980   1.368       .  S
C3976      C3977   1.399       .  A
C3977      H3981   1.083       .  S
C3977      C3978   1.402       .  A
C3978      O3982   1.362       .  S
O3980      H3984   0.992       .  S
O3982      H3983   0.990       .  S
C3985      C3986   1.408       .  A
C3985      C3990   1.407       .  A
C3986      H3991   1.077       .  S
C3986      C3987   1.386       .  A
C3987      C3988   1.400       .  A
C3987      O3992   1.373       .  S
C3988      C3989   1.409       .  A
C3989      H3993   1.084       .  S
C3989      C3990   1.408       .  A
C3990      O3994   1.377       .  S
O3992      H3996   0.992       .  S
O3994      H3995   0.992       .  S
C3997      C3998   1.411       .  A
C3997      C4002   1.403       .  A
C3998      H4003   1.070       .  S
C3998      C3999   1.379       .  A
C3999      C4000   1.393       .  A
C3999      O4004   1.374       .  S
C4000      C4001   1.402       .  A
C4001      H4005   1.071       .  S
C4001      C4002   1.410       .  A
C4002      O4006   1.370       .  S
O4004      H4008   0.992       .  S
O4006      H4007   0.992       .  S
C4009      C4010   1.403       .  A
C4009      C4014   1.410       .  A
C4010      H4015   1.083       .  S
C4010      C4011   1.413       .  A
C4011      C4012   1.413       .  A
C4011      O4016   1.371       .  S
C4012      C4013   1.405       .  A
C4013      H4017   1.084       .  S
C4013      C4014   1.394       .  A
C4014      O4018   1.372       .  S
O4016      H4020   0.992       .  S
O4018      H4019   0.992       .  S
C4021      C4022   1.400       .  A
C4021      C4026   1.417       .  A
C4022      H4027   1.084       .  S
C4022      C4023   1.399       .  A
C4023      C4024   1.416       .  A
C4023      O4028   1.370       .  S
C4024      C4025   1.401       .  A
C4025      H4029   1.081       .  S
C4025      C4026   1.406       .  A
C4026      O4030   1.370       .  S
O4028      H4032   0.992       .  S
O4030      H4031   0.991       .  S
C4033      C4034   1.404       .  A
C4033      C4038   1.413       .  A
C4034      H4039   1.083       .  S
C4034      C4035   1.400       .  A
C4035      C4036   1.415       .  A
C4035      O4040   1.372       .  S
C4036      C4037   1.394       .  A
C4037      H4041   1.075       .  S
C4037      C4038   1.395       .  A
C4038      O4042   1.370       .  S
O4040      H4044   0.992       .  S
O4042      H4043   0.992       .  S
C4045      C4046   1.405       .  A
C4045      C4050   1.415       .  A
C4046      H4051   1.083       .  S
C4046      C4047   1.407       .  A
C4047      C4048   1.406       .  A
C4047      O4052   1.366       .  S
C4048      C4049   1.393       .  A
C4049      H4053   1.085       .  S
C4049      C4050   1.379       .  A
C4050      O4054   1.373       .  S
O4052      H4056   0.990       .  S
O4054      H4055   0.992       .  S
C4057      C4058   1.407       .  A
C4057      C4062   1.401       .  A
C4058      H4063   1.084       .  S
C4058      C4059   1.397       .  A
C4059      C4060   1.404       .  A
C4059      O4064   1.372       .  S
C4060      C4061   1.405       .  A
C4061      H4065   1.084       .  S
C4061      C4062   1.401       .  A
C4062      O4066   1.371       .  S
O4064      H4068   0.992       .  S
O4066      H4067   0.991       .  S
C4069      C4070   1.398       .  A
C4069      C4074   1.412       .  A
C4070      H4075   1.082       .  S
C4070      C4071   1.400       .  A
C4071      C4072   1.412       .  A
C4071      O4076   1.372       .  S
C4072      C4073   1.402       .  A
C4073      H4077   1.084       .  S
C4073      C4074   1.402       .  A
C4074      O4078   1.371   1_556  S
O4076      H4080   0.992       .  S
O4078      H4079   0.991   1_554  S
C4081      C4082   1.398       .  A
C4081      C4086   1.411       .  A
C4082      H4087   1.085       .  S
C4082      C4083   1.385       .  A
C4083      C4084   1.410       .  A
C4083      O4088   1.375       .  S
C4084      C4085   1.405       .  A
C4085      H4089   1.083       .  S
C4085      C4086   1.411       .  A
C4086      O4090   1.372       .  S
O4088      H4092   0.992       .  S
O4090      H4091   0.992       .  S
C4093      C4094   1.405       .  A
C4093      C4098   1.405       .  A
C4094      H4099   1.079       .  S
C4094      C4095   1.387       .  A
C4095      C4096   1.403       .  A
C4095      O4100   1.374       .  S
C4096      C4097   1.411       .  A
C4097      H4101   1.077       .  S
C4097      C4098   1.410       .  A
C4098      O4102   1.372       .  S
O4100      H4104   0.991       .  S
O4102      H4103   0.991       .  S
