geometry optimzed in LAMMPS
_audit_creation_date              2020-11-30 
_audit_creation_method            'lammps2cif' 
_symmetry_space_group_name_H-M    'P1' 
_symmetry_Int_Tables_number       1 
_symmetry_cell_setting            triclinic 
loop_ 
_symmetry_equiv_pos_as_xyz 
  x,y,z 
_cell_length_a                    24.88493683 
_cell_length_b                    24.98983804314111 
_cell_length_c                    24.957015112554416 
_cell_angle_alpha                 89.92273978639368 
_cell_angle_beta                  89.10303271873074 
_cell_angle_gamma                 89.74194416536847 
loop_ 
_atom_site_label 
_atom_site_type_symbol 
_atom_site_fract_x 
_atom_site_fract_y 
_atom_site_fract_z 
_atom_site_charge 
O1          O  0.86597552  0.69608642  0.74787355    -0.78400
C2          C  0.71787348  0.60444141  0.77600974     0.82700
O3          O  0.74897560  0.76447623  0.62249670    -0.79500
O4          O  0.61595304  0.74714089  0.78144885    -0.81000
O5          O  0.78293918  0.77926734  0.89267269    -0.80800
O6          O  0.88426420  0.77437839  0.78694184    -0.79400
Zn7        Zn  0.79002342  0.68780081  0.73118060     1.55700
O8          O  0.70584439  0.73609582  0.88004106    -0.80800
Cd9        Cd  0.80212396  0.79880821  0.80788388     1.59700
Cd10       Cd  0.72331836  0.78761214  0.69932092     1.59600
O11         O  0.78516461  0.88352233  0.78532871    -0.80800
O12         O  0.75439960  0.75007751  0.76110595    -1.91300
Cd13       Cd  0.69228183  0.72306532  0.80231153     1.59900
O14         O  0.73867505  0.86573762  0.71177872    -0.80700
O15         O  0.68961593  0.64270046  0.79473440    -0.79400
C16         C  0.77396825  0.72099006  0.61314205     0.83100
C17         C  0.89961643  0.73054983  0.76392006     0.82800
O18         O  0.76196859  0.61310877  0.75128256    -0.78300
C19         C  0.74154022  0.75374741  0.91116747     0.83600
O20         O  0.78860732  0.69074338  0.65132631    -0.78400
C21         C  0.75877260  0.89944707  0.74394772     0.83700
C22         C  0.60456076  0.76585622  0.73580114     0.84100
O23         O  0.64114176  0.77937152  0.70209100    -0.80900
O24         O  0.21458573  0.73589624  0.87862643    -0.78400
C25         C  0.10184556  0.75464055  0.74949158     0.82700
O26         O  0.28596235  0.61974669  0.74796629    -0.79500
O27         O  0.23314332  0.77359583  0.63118614    -0.81000
O28         O  0.28181296  0.88617725  0.78983061    -0.80800
O29         O  0.28119805  0.79048782  0.89735973    -0.79400
Zn30       Zn  0.20275107  0.72176993  0.80426082     1.55700
O31         O  0.23081323  0.87777893  0.71674114    -0.80800
Cd32       Cd  0.29769597  0.80576137  0.81238345     1.59700
Cd33       Cd  0.30176279  0.70086120  0.72675560     1.59600
O34         O  0.37889261  0.79515288  0.78757667    -0.80800
O35         O  0.25450598  0.75765627  0.76284578    -1.91300
Cd36       Cd  0.21164799  0.79823366  0.70883024     1.59900
O37         O  0.38091358  0.72309842  0.73368864    -0.80700
O38         O  0.12821626  0.78246343  0.71513501    -0.79400
C39         C  0.24363779  0.60836767  0.77483785     0.83100
C40         C  0.24282668  0.75968537  0.91280242     0.82800
O41         O  0.12489745  0.73354619  0.78919281    -0.78300
C42         C  0.25851891  0.90591248  0.74871837     0.83600
O43         O  0.21418238  0.64534608  0.79413719    -0.78400
C44         C  0.40356591  0.76312860  0.75530217     0.83700
C45         C  0.26033154  0.73330895  0.61459413     0.84100
O46         O  0.28697743  0.70342353  0.64592973    -0.80900
C47         C  0.79776364  0.71190448  0.46483691     0.80400
N48         N  0.77775935  0.73079156  0.51268496    -0.78000
C49         C  0.78928786  0.70339980  0.55862510     0.82800
N50         N  0.81934719  0.65832141  0.55576233    -0.77900
C51         C  0.83921502  0.63894885  0.50915329     0.82900
N52         N  0.82846841  0.66662574  0.46370816    -0.79600
C53         C  0.95607828  0.71727317  0.74749463     0.80400
N54         N  0.00095523  0.74660836  0.75920142    -0.78000
C55         C  0.04925756  0.73241590  0.73538530     0.82800
N56         N  0.05191728  0.68982603  0.70179939    -0.77900
C57         C  0.00827417  0.66004262  0.69106773     0.82900
N58         N  0.96096276  0.67473248  0.71367980    -0.79600
C59         C  0.98001600  0.70378106  0.28616316     0.80400
N60         N  0.97862159  0.65870664  0.31681956    -0.78000
C61         C  0.02417388  0.63404777  0.33312338     0.82800
N62         N  0.07137575  0.65596968  0.31802717    -0.77900
C63         C  0.07453838  0.70093672  0.28776861     0.82900
N64         N  0.02841297  0.72594054  0.27183016    -0.79600
N65         N  0.96200105  0.58002500  0.45427243    -0.36500
N66         N  0.95772833  0.59591872  0.57007512    -0.57000
N67         N  0.07236175  0.60994496  0.57047509    -0.36500
N68         N  0.07884714  0.58922284  0.45680552    -0.57000
C69         C  0.90815697  0.58261918  0.46143674     0.27100
C70         C  0.97228776  0.58062866  0.40102439     0.27100
C71         C  0.06130135  0.60778339  0.62354845     0.27100
C72         C  0.12569889  0.60182372  0.56394073     0.27100
C73         C  0.90562679  0.58595691  0.56069625     0.35700
C74         C  0.96312676  0.60103646  0.62339089     0.35700
C75         C  0.07222666  0.58215693  0.40373194     0.35700
C76         C  0.13210158  0.59223842  0.46556723     0.35700
C77         C  0.88357566  0.57938349  0.41213452    -0.21800
C78         C  0.92407993  0.57780124  0.37396689    -0.21800
C79         C  0.10798556  0.59789387  0.65140012    -0.21800
C80         C  0.14875203  0.59366101  0.61362056    -0.21800
C81         C  0.87794329  0.58169283  0.60925896    -0.22800
C82         C  0.91424879  0.59191982  0.64898112    -0.22800
C83         C  0.12227236  0.57740799  0.37879344    -0.22800
C84         C  0.16015162  0.58400697  0.41786402    -0.22800
C85         C  0.88175374  0.59596518  0.51036311    -0.18200
C86         C  0.02301968  0.59255745  0.37713437    -0.18200
C87         C  0.15441256  0.60830044  0.51499505    -0.18200
C88         C  0.01080044  0.61902144  0.64738466    -0.18200
H89         H  0.84091711  0.58030079  0.40435010     0.14700
H90         H  0.91851294  0.57706540  0.33105798     0.14700
H91         H  0.11213952  0.59459931  0.69440368     0.14700
H92         H  0.19076502  0.58651214  0.62181027     0.14700
H93         H  0.83531043  0.57504068  0.61522972     0.13000
H94         H  0.90536812  0.59279835  0.69153306     0.13000
H95         H  0.13059937  0.57217650  0.33640962     0.13000
H96         H  0.20326024  0.58366620  0.41152982     0.13000
H97         H  0.99003300  0.58418565  0.48379149     0.26300
H98         H  0.04594816  0.62198364  0.54103020     0.26300
C99         C  0.25491116  0.70918615  0.46735320     0.80400
N100        N  0.26935259  0.73298142  0.51430827    -0.78000
C101        C  0.24989880  0.71177829  0.56146831     0.82800
N102        N  0.21641164  0.66921758  0.56103503    -0.77900
C103        C  0.20132889  0.64592526  0.51501954     0.82900
N104        N  0.22072027  0.66669180  0.46880230    -0.79600
O105        O  0.27404262  0.61496300  0.28859095    -0.78400
C106        C  0.27103507  0.72708510  0.41274192     0.82700
O107        O  0.13983364  0.76714999  0.25875992    -0.79500
O108        O  0.30877899  0.86913922  0.29751385    -0.81000
O109        O  0.39719150  0.72561426  0.21970760    -0.80800
O110        O  0.30096710  0.62838030  0.20491177    -0.79400
Zn111      Zn  0.24467954  0.68830897  0.30155083     1.55700
O112        O  0.40357877  0.77105626  0.29712599    -0.80800
Cd113      Cd  0.31772912  0.71037872  0.20623922     1.59700
Cd114      Cd  0.21746768  0.79143590  0.23358981     1.59600
O115        O  0.29501364  0.73752738  0.12994139    -0.80800
O116        O  0.27630722  0.74618481  0.26502870    -1.91300
Cd117      Cd  0.32162864  0.78730662  0.31788359     1.59900
O118        O  0.21781049  0.77859795  0.15131977    -0.80700
O119        O  0.30157940  0.76667054  0.40061998    -0.79400
C120        C  0.12942218  0.72035912  0.27662178     0.83100
C121        C  0.28481161  0.59728130  0.24228413     0.82800
O122        O  0.25081121  0.69890559  0.37648400    -0.78300
C123        C  0.42476598  0.74954916  0.25504840     0.89200
O124        O  0.16674070  0.68793575  0.28907973    -0.78400
C125        C  0.25025896  0.75846167  0.11666671     0.83700
C126        C  0.27528498  0.89469365  0.26808583     0.84100
O127        O  0.23558621  0.87181485  0.24580953    -0.80900
O128        O  0.75731949  0.85922801  0.22951834    -0.78400
C129        C  0.77581964  0.73564367  0.11128874     0.82700
O130        O  0.64110647  0.73188727  0.29762014    -0.79500
O131        O  0.79380496  0.61432022  0.23581702    -0.81000
O132        O  0.90813991  0.76709343  0.29427072    -0.80800
O133        O  0.81386898  0.87972866  0.29310187    -0.79400
Zn134      Zn  0.74268450  0.78661556  0.21422195     1.55700
O135        O  0.89964292  0.69582407  0.23998746    -0.80800
Cd136      Cd  0.82770946  0.79373714  0.30886464     1.59700
Cd137      Cd  0.72219053  0.70882560  0.30966078     1.59600
O138        O  0.81438411  0.76941500  0.38995467    -0.80800
O139        O  0.77954614  0.74519909  0.26393796    -1.91300
Cd140      Cd  0.81997340  0.69182976  0.21864265     1.59900
O141        O  0.74564659  0.71139496  0.38810329    -0.80700
O142        O  0.80350586  0.70025717  0.13578827    -0.79400
C143        C  0.62880030  0.75737410  0.25539283     0.83100
C144        C  0.78132529  0.89428684  0.25632052     0.82800
O145        O  0.75610634  0.77547601  0.13599140    -0.78300
C146        C  0.92757956  0.72568151  0.27021972     0.83600
O147        O  0.66532127  0.77627321  0.22485076    -0.78400
C148        C  0.78337787  0.73484190  0.41263524     0.83700
C149        C  0.75187164  0.59837291  0.26095709     0.84100
O150        O  0.72214278  0.62961388  0.28870931    -0.80900
C151        C  0.73133833  0.73704195  0.96827692     0.80400
N152        N  0.76331793  0.74716099  0.01150135    -0.78000
C153        C  0.75105033  0.72257428  0.05973174     0.82800
N154        N  0.70758290  0.68995322  0.06407144    -0.77900
C155        C  0.67519982  0.68094776  0.02216262     0.82900
N156        N  0.68817053  0.70426355  0.97503992    -0.79600
C157        C  0.69673342  0.55074251  0.78751739     0.80400
N158        N  0.65442796  0.55019831  0.82204291    -0.78000
C159        C  0.63223194  0.50482886  0.84039434     0.82800
N160        N  0.65320688  0.45836133  0.82247458    -0.77900
C161        C  0.69539832  0.45667618  0.78744277     0.82900
N162        N  0.71870381  0.50337741  0.77006149    -0.79600
C163        C  0.74780322  0.27976336  0.05412884     0.80400
N164        N  0.75963865  0.25673404  0.00515245    -0.78000
C165        C  0.72835572  0.26983225  0.96211972     0.82800
N166        N  0.68590605  0.30400388  0.96959228    -0.77900
C167        C  0.67338358  0.32566215  0.01772935     0.82900
N168        N  0.70531813  0.31375281  0.05934437    -0.79600
N169        N  0.62057804  0.56028483  0.08298536    -0.36500
N170        N  0.61302571  0.44444531  0.08224328    -0.57000
N171        N  0.61414482  0.44735561  0.96768764    -0.36500
N172        N  0.60513417  0.56315750  0.96985679    -0.57000
C173        C  0.61241834  0.55148796  0.13569118     0.27100
C174        C  0.62151768  0.61358834  0.07479077     0.27100
C175        C  0.61256784  0.39420160  0.97642363     0.27100
C176        C  0.59494430  0.45666355  0.91843586     0.27100
C177        C  0.60959187  0.45144720  0.13569554     0.35700
C178        C  0.61965712  0.39150170  0.07348349     0.35700
C179        C  0.61263463  0.61607588  0.97736942     0.35700
C180        C  0.59414863  0.55610138  0.91770096     0.35700
C181        C  0.60656390  0.60063986  0.16141683    -0.21800
C182        C  0.61338397  0.63992213  0.12294998    -0.21800
C183        C  0.59237377  0.36859515  0.93200479    -0.21800
C184        C  0.58063402  0.40828085  0.89537047    -0.21800
C185        C  0.60884825  0.40155680  0.16064110    -0.22800
C186        C  0.61692157  0.36375835  0.12132274    -0.22800
C187        C  0.60273642  0.64357886  0.93035469    -0.22800
C188        C  0.58999757  0.60571212  0.89284453    -0.22800
C189        C  0.61976422  0.50126364  0.16148605    -0.18200
C190        C  0.63295177  0.63821938  0.02509127    -0.18200
C191        C  0.59934454  0.50604412  0.89097630    -0.18200
C192        C  0.63180855  0.36910704  0.02284849    -0.18200
H193        H  0.60032277  0.60747492  0.20388540     0.14700
H194        H  0.61269361  0.68273355  0.12957471     0.14700
H195        H  0.58684618  0.32602129  0.92661158     0.14700
H196        H  0.56537797  0.40221322  0.85546376     0.14700
H197        H  0.60565946  0.39324086  0.20314033     0.13000
H198        H  0.62034841  0.32096063  0.12723870     0.13000
H199        H  0.60408048  0.68631200  0.92358922     0.13000
H200        H  0.58099221  0.61376022  0.85130908     0.13000
H201        H  0.63121812  0.53191884  0.05479982     0.26300
H202        H  0.63298920  0.47475815  0.99197697     0.26300
C203        C  0.72830919  0.45216258  0.24852283     0.80400
N204        N  0.68217689  0.45409508  0.22092158    -0.78000
C205        C  0.65926091  0.50065174  0.20620204     0.82800
N206        N  0.68345676  0.54636415  0.22119013    -0.77900
C207        C  0.72967160  0.54594705  0.24905430     0.82900
N208        N  0.75378568  0.49845706  0.26189453    -0.79600
O209        O  0.75198451  0.22313635  0.12828903    -0.78400
C210        C  0.77498815  0.10066517  0.25207930     0.82700
O211        O  0.63299463  0.26662057  0.28591669    -0.79500
O212        O  0.80627090  0.22910976  0.38378695    -0.81000
O213        O  0.89370458  0.29443059  0.23696122    -0.80800
O214        O  0.79931470  0.29801844  0.13148511    -0.79400
Zn215      Zn  0.73752280  0.20857109  0.20635488     1.55700
O216        O  0.89911387  0.22044051  0.28804500    -0.80800
Cd217      Cd  0.81464006  0.30367856  0.21469197     1.59700
Cd218      Cd  0.71375128  0.28730859  0.30244158     1.59600
O219        O  0.79087687  0.38183264  0.23425463    -0.80800
O220        O  0.77186041  0.25044952  0.25756139    -1.91300
Cd221      Cd  0.81805582  0.20146113  0.30401438     1.59900
O222        O  0.71708995  0.36720247  0.28421662    -0.80700
O223        O  0.80358984  0.11664665  0.29114652    -0.79400
C224        C  0.62216123  0.23966244  0.24426436     0.83100
C225        C  0.77194023  0.26389688  0.10535788     0.82800
O226        O  0.75247451  0.13438733  0.22171954    -0.78300
C227        C  0.92031369  0.26150950  0.26561018     0.83600
O228        O  0.65967988  0.21936129  0.21566856    -0.78400
C229        C  0.74876208  0.39845048  0.25890757     0.83700
C230        C  0.77343862  0.26210862  0.40648367     0.84100
O231        O  0.73375039  0.28293387  0.38224004    -0.80900
O232        O  0.75784478  0.39362792  0.74733040    -0.78400
C233        C  0.89642549  0.27786900  0.75315949     0.82700
O234        O  0.74611721  0.24008268  0.61776849    -0.79500
O235        O  0.78551819  0.12488574  0.78127097    -0.81000
O236        O  0.70093192  0.26901200  0.87460426    -0.80800
O237        O  0.68637128  0.36472137  0.79259339    -0.79400
Zn238      Zn  0.78481262  0.31965062  0.72318086     1.55700
O239        O  0.78099698  0.23010910  0.88612712    -0.80800
Cd240      Cd  0.68869762  0.28409681  0.79711519     1.59700
Cd241      Cd  0.72038407  0.21903981  0.69489201     1.59600
O242        O  0.61238074  0.26154361  0.77576263    -0.80800
O243        O  0.75130584  0.25766454  0.75541921    -1.91300
Cd244      Cd  0.80092624  0.21008674  0.80181951     1.59900
O245        O  0.63809516  0.22775743  0.69726486    -0.80700
O246        O  0.88247817  0.23535588  0.77930339    -0.79400
C247        C  0.76754241  0.28474849  0.60628863     0.83100
C248        C  0.71489383  0.40267522  0.77411472     0.82800
O249        O  0.86163245  0.31068772  0.73565516    -0.78300
C250        C  0.73819002  0.25327962  0.90508120     0.83600
O251        O  0.78011379  0.31754722  0.64299489    -0.78400
C252        C  0.60127792  0.24220825  0.73044534     0.83700
C253        C  0.75800269  0.10828481  0.74109383     0.84100
O254        O  0.73647166  0.14144037  0.70908503    -0.80900
C255        C  0.74267490  0.95610498  0.72979583     0.80400
N256        N  0.70208476  0.95755613  0.69372094    -0.78000
C257        C  0.68168633  0.00311734  0.67383924     0.82800
N258        N  0.70194186  0.04922735  0.69196398    -0.77900
C259        C  0.74249533  0.05143935  0.72815345     0.82900
N260        N  0.76359625  0.00400733  0.74821372    -0.79600
C261        C  0.45503280  0.77965828  0.73117607     0.80400
N262        N  0.50402295  0.76227440  0.74874430    -0.78000
C263        C  0.54901145  0.77624636  0.71987319     0.82800
N264        N  0.54414836  0.80575348  0.67515244    -0.77900
C265        C  0.49675637  0.82396250  0.65778195     0.82900
N266        N  0.45206652  0.81101433  0.68662956    -0.79600
C267        C  0.27370608  0.95905379  0.72875221     0.80400
N268        N  0.30292856  0.95920809  0.68248205    -0.78000
C269        C  0.31808359  0.00509107  0.65806426     0.82800
N270        N  0.30325718  0.05169956  0.68144907    -0.77900
C271        C  0.27390002  0.05315512  0.72765339     0.82900
N272        N  0.25890671  0.00644237  0.75231834    -0.79600
N273        N  0.55243197  0.05960308  0.62689953    -0.36500
N274        N  0.43752097  0.06129746  0.60011155    -0.57000
N275        N  0.43871136  0.94608414  0.60311438    -0.36500
N276        N  0.55488136  0.94632936  0.62123593    -0.57000
C277        C  0.54390090  0.11005923  0.60964873     0.27100
C278        C  0.60622353  0.05081479  0.62568191     0.27100
C279        C  0.38511841  0.95442795  0.60272872     0.27100
C280        C  0.44717123  0.89282920  0.60534244     0.27100
C281        C  0.44514633  0.11446002  0.60139722     0.35700
C282        C  0.38403038  0.05339074  0.59941166     0.35700
C283        C  0.60826519  0.95350933  0.62566736     0.35700
C284        C  0.54690396  0.89462467  0.60887120     0.35700
C285        C  0.59295710  0.13358086  0.59692384    -0.21800
C286        C  0.63239114  0.09627044  0.60757939    -0.21800
C287        C  0.35917240  0.90549071  0.60017429    -0.21800
C288        C  0.39840224  0.86653849  0.60195326    -0.21800
C289        C  0.39640045  0.14105249  0.59753340    -0.22800
C290        C  0.35755428  0.10223436  0.59623555    -0.22800
C291        C  0.63527004  0.90628767  0.61428895    -0.22800
C292        C  0.59644262  0.86921384  0.60274771    -0.22800
C293        C  0.49434775  0.13796124  0.61498776    -0.18200
C294        C  0.63175746  0.00247820  0.64047480    -0.18200
C295        C  0.49690804  0.86836097  0.61742884    -0.18200
C296        C  0.35976123  0.00420895  0.61378939    -0.18200
H297        H  0.59956625  0.17414660  0.58313110     0.14700
H298        H  0.67522260  0.10170959  0.60188269     0.14700
H299        H  0.31629199  0.89852812  0.59940000     0.14700
H300        H  0.39161422  0.82379124  0.60262135     0.14700
H301        H  0.38937055  0.18382460  0.59799293     0.13000
H302        H  0.31460083  0.10921232  0.59590376     0.13000
H303        H  0.67820403  0.89931990  0.61325074     0.13000
H304        H  0.60369154  0.82747896  0.59343828     0.13000
H305        H  0.52336887  0.03446155  0.64333234     0.26300
H306        H  0.46762937  0.97486469  0.60799993     0.26300
C307        C  0.54579837  0.23209128  0.71446081     0.80400
N308        N  0.54127258  0.20142480  0.67060947    -0.78000
C309        C  0.49387949  0.18345844  0.65355938     0.82800
N310        N  0.44890949  0.19788627  0.68146988    -0.77900
C311        C  0.45150813  0.23052114  0.72500073     0.82900
N312        N  0.50055390  0.24744911  0.74255589    -0.79600
O313        O  0.12009775  0.27805063  0.78018110    -0.78400
C314        C  0.23490994  0.25293849  0.90654676     0.82700
O315        O  0.28114647  0.39201202  0.74598564    -0.79500
O316        O  0.37612184  0.21865285  0.78385538    -0.81000
O317        O  0.23048401  0.13407167  0.71288933    -0.80800
O318        O  0.12642181  0.22819133  0.70692418    -0.79400
Zn319      Zn  0.19680706  0.29078596  0.79749722     1.55700
O320        O  0.28036844  0.12748757  0.78693943    -0.80800
Cd321      Cd  0.21009754  0.21318451  0.70262569     1.59700
Cd322      Cd  0.29637370  0.31173625  0.72051506     1.59600
O323        O  0.23308627  0.23595555  0.62466735    -0.80800
O324        O  0.25033578  0.25519562  0.75710702    -1.91300
Cd325      Cd  0.29436787  0.20838320  0.80769031     1.59900
O326        O  0.27872427  0.31111539  0.63966307    -0.80700
O327        O  0.27530797  0.22406163  0.89186116    -0.79400
C328        C  0.23858792  0.40432097  0.77246714     0.83100
C329        C  0.09865182  0.25603631  0.74028246     0.82800
O330        O  0.20600994  0.27565607  0.87202347    -0.78300
C331        C  0.25805449  0.10677620  0.74594774     0.83600
O332        O  0.20737166  0.36810683  0.79010852    -0.78400
C333        C  0.25602868  0.27853739  0.60799653     0.83700
C334        C  0.39964605  0.24817601  0.74852923     0.84100
O335        O  0.37567761  0.28633611  0.72443326    -0.80900
C336        C  0.22617450  0.74674160  0.96903793     0.80400
N337        N  0.24966992  0.76400978  0.01532248    -0.78000
C338        C  0.22821333  0.74676427  0.06359753     0.82800
N339        N  0.18636614  0.71208894  0.06456105    -0.77900
C340        C  0.16398111  0.69399285  0.01922991     0.82900
N341        N  0.18468027  0.71169991  0.97248117    -0.79600
C342        C  0.22149286  0.45948854  0.78663357     0.80400
N343        N  0.17796333  0.46188126  0.82017376    -0.78000
C344        C  0.15679092  0.50851557  0.83735801     0.82800
N345        N  0.18080061  0.55356819  0.82086394    -0.77900
C346        C  0.22424935  0.55385718  0.78753116     0.82900
N347        N  0.24581441  0.50613403  0.76978377    -0.79600
C348        C  0.21773806  0.26596023  0.96245602     0.80400
N349        N  0.23980771  0.24601506  0.00866225    -0.78000
C350        C  0.21868269  0.26346076  0.05690670     0.82800
N351        N  0.17837779  0.29995938  0.05758500    -0.77900
C352        C  0.15715846  0.32053983  0.01314339     0.82900
N353        N  0.17765112  0.30339815  0.96592077    -0.79600
N354        N  0.11565064  0.45065208  0.96103435    -0.36500
N355        N  0.12080820  0.44865879  0.07549810    -0.57000
N356        N  0.12982941  0.56522121  0.07579667    -0.36500
N357        N  0.11141658  0.56797344  0.96262345    -0.57000
C358        C  0.11056456  0.39746298  0.96887030     0.27100
C359        C  0.10668294  0.46077935  0.90901776     0.27100
C360        C  0.12857436  0.55490970  0.12869841     0.27100
C361        C  0.12197076  0.61821612  0.06936526     0.27100
C362        C  0.11650575  0.39545202  0.06770583     0.35700
C363        C  0.12494664  0.45653708  0.12864965     0.35700
C364        C  0.10821117  0.56005136  0.90925243     0.35700
C365        C  0.11390456  0.62142318  0.97062264     0.35700
C366        C  0.09697655  0.37329004  0.92099290    -0.21800
C367        C  0.09451728  0.41339632  0.88308680    -0.21800
C368        C  0.11959447  0.60180374  0.15694817    -0.21800
C369        C  0.11477088  0.64192199  0.11932056    -0.21800
C370        C  0.11383312  0.36963194  0.11697204    -0.22800
C371        C  0.11964520  0.40825249  0.15549098    -0.22800
C372        C  0.10453330  0.60900366  0.88334095    -0.22800
C373        C  0.10791028  0.64776718  0.92208682    -0.22800
C374        C  0.12313321  0.37030712  0.01688856    -0.18200
C375        C  0.11775434  0.51006498  0.88356840    -0.18200
C376        C  0.12807608  0.64570812  0.02006581    -0.18200
C377        C  0.14177952  0.50528208  0.15160524    -0.18200
H378        H  0.09047693  0.33111776  0.91388648     0.14700
H379        H  0.08645924  0.40814972  0.84091878     0.14700
H380        H  0.11771404  0.60655534  0.20005698     0.14700
H381        H  0.10799738  0.68388393  0.12785867     0.14700
H382        H  0.10897282  0.32730577  0.12466376     0.13000
H383        H  0.12055929  0.40137519  0.19830019     0.13000
H384        H  0.10106599  0.61613214  0.84073592     0.13000
H385        H  0.10672368  0.69044711  0.91490339     0.13000
H386        H  0.13055358  0.47792038  0.98780811     0.26300
H387        H  0.14162647  0.53836715  0.04646589     0.26300
C388        C  0.25118863  0.45234949  0.23664670     0.80400
N389        N  0.20537717  0.45697562  0.20839495    -0.78000
C390        C  0.18687992  0.50402445  0.19024691     0.82800
N391        N  0.21637165  0.54810324  0.19956793    -0.77900
C392        C  0.26223503  0.54549149  0.22820996     0.82900
N393        N  0.28004866  0.49731853  0.24801070    -0.79600
C394        C  0.57349368  0.76802055  0.23723673     0.80400
N395        N  0.52641474  0.75070808  0.26083950    -0.78000
C396        C  0.47889899  0.76481310  0.23691550     0.82800
N397        N  0.47942631  0.79525464  0.19194602    -0.77900
C398        C  0.52555195  0.81223291  0.16896251     0.82900
N399        N  0.57157477  0.79834141  0.19247561    -0.79600
C400        C  0.76569951  0.94966708  0.23938953     0.80400
N401        N  0.78335721  0.99793382  0.25932815    -0.78000
C402        C  0.76216924  0.04430000  0.23768710     0.82800
N403        N  0.72484657  0.04097610  0.19847018    -0.77900
C404        C  0.70790581  0.99430673  0.17862972     0.82900
N405        N  0.72825112  0.94957399  0.20006117    -0.79600
C406        C  0.29115908  0.94748794  0.24647817     0.80400
N407        N  0.32597920  0.94569990  0.20384232    -0.78000
C408        C  0.34080199  0.99058615  0.17724022     0.82800
N409        N  0.32113145  0.03743422  0.19523722    -0.77900
C410        C  0.28695833  0.04170591  0.23784435     0.82900
N411        N  0.27101602  0.99600590  0.26425357    -0.79600
N412        N  0.58059815  0.04913434  0.13286762    -0.36500
N413        N  0.46415782  0.04863363  0.12204001    -0.57000
N414        N  0.46603872  0.93392276  0.12507143    -0.36500
N415        N  0.58354626  0.93498918  0.12427587    -0.57000
C416        C  0.57129603  0.10078336  0.12031444     0.27100
C417        C  0.63413855  0.04068187  0.12907721     0.27100
C418        C  0.41239517  0.94158595  0.12512734     0.27100
C419        C  0.47556595  0.88128659  0.11898720     0.27100
C420        C  0.47160677  0.10180886  0.11774488     0.35700
C421        C  0.41063891  0.04006956  0.12293635     0.35700
C422        C  0.63693887  0.94265694  0.12893805     0.35700
C423        C  0.57577095  0.88203135  0.11820183     0.35700
C424        C  0.61975934  0.12559120  0.10793967    -0.21800
C425        C  0.65957063  0.08759456  0.11382021    -0.21800
C426        C  0.38694223  0.89315501  0.11719749    -0.21800
C427        C  0.42697007  0.85500419  0.11272386    -0.21800
C428        C  0.42229946  0.12713952  0.11187472    -0.22800
C429        C  0.38371454  0.08811034  0.11554196    -0.22800
C430        C  0.66396520  0.89449797  0.12252813    -0.22800
C431        C  0.62530632  0.85624976  0.11490856    -0.22800
C432        C  0.52135155  0.12743976  0.12713953    -0.18200
C433        C  0.66026536  0.99232461  0.14241848    -0.18200
C434        C  0.52571157  0.85629362  0.12838456    -0.18200
C435        C  0.38660539  0.99053644  0.13728993    -0.18200
H436        H  0.62579934  0.16713235  0.09713746     0.14700
H437        H  0.70224723  0.09376784  0.10767638     0.14700
H438        H  0.34412881  0.88597210  0.11570675     0.14700
H439        H  0.42090493  0.81245056  0.10770347     0.14700
H440        H  0.41462117  0.16940886  0.10627911     0.13000
H441        H  0.34078512  0.09457206  0.11328828     0.13000
H442        H  0.70686507  0.88742463  0.12300058     0.13000
H443        H  0.63268810  0.81376641  0.11018107     0.13000
H444        H  0.55276103  0.02263289  0.14868819     0.26300
H445        H  0.49420161  0.96199227  0.13507965     0.26300
C446        C  0.56743515  0.22797866  0.22524570     0.80400
N447        N  0.56682571  0.19216190  0.18455623    -0.78000
C448        C  0.52136196  0.17656346  0.16123810     0.82800
N449        N  0.47516427  0.19744309  0.18007039    -0.77900
C450        C  0.47284247  0.23331193  0.22081344     0.82900
N451        N  0.51970092  0.24904110  0.24481524    -0.79600
C452        C  0.78187959  0.30009652  0.55079668     0.80400
N453        N  0.76907681  0.27097671  0.50640437    -0.78000
C454        C  0.78831366  0.28732035  0.45735489     0.82800
N455        N  0.81980650  0.33159442  0.45354272    -0.77900
C456        C  0.83199710  0.36094464  0.49732616     0.82900
N457        N  0.81270755  0.34422154  0.54526863    -0.79600
C458        C  0.95249928  0.29139089  0.73573807     0.80400
N459        N  0.95672870  0.33282512  0.70030740    -0.78000
C460        C  0.00408941  0.34737697  0.67756499     0.82800
N461        N  0.04820401  0.31859823  0.68980493    -0.77900
C462        C  0.04599680  0.27707146  0.72477900     0.82900
N463        N  0.99789013  0.26317504  0.74881956    -0.79600
C464        C  0.97324753  0.27952865  0.28290983     0.80400
N465        N  0.01932973  0.24954288  0.27920636    -0.78000
C466        C  0.06536308  0.26926745  0.30092021     0.82800
N467        N  0.06439516  0.31792877  0.32502241    -0.77900
C468        C  0.01918235  0.34812783  0.32814333     0.82900
N469        N  0.97398312  0.32810279  0.30693980    -0.79600
N470        N  0.95585930  0.41513161  0.43836018    -0.36500
N471        N  0.95229965  0.40417485  0.55410211    -0.57000
N472        N  0.06765132  0.39303729  0.55432863    -0.36500
N473        N  0.07361257  0.41102246  0.44030061    -0.57000
C474        C  0.90200360  0.41253650  0.44560869     0.27100
C475        C  0.96640486  0.41148539  0.38534884     0.27100
C476        C  0.05653955  0.39735551  0.60735079     0.27100
C477        C  0.12052474  0.40332182  0.54702899     0.27100
C478        C  0.90020000  0.41454482  0.54481119     0.35700
C479        C  0.95843497  0.40300009  0.60749185     0.35700
C480        C  0.06613598  0.41199459  0.38695817     0.35700
C481        C  0.12696484  0.40768410  0.44817146     0.35700
C482        C  0.87759114  0.41264020  0.39606270    -0.21800
C483        C  0.91826285  0.41210086  0.35799139    -0.21800
C484        C  0.10268910  0.41064071  0.63441066    -0.21800
C485        C  0.14306894  0.41508110  0.59619553    -0.21800
C486        C  0.87324266  0.42263978  0.59328761    -0.22800
C487        C  0.91008801  0.41466335  0.63311195    -0.22800
C488        C  0.11552353  0.41259000  0.36048968    -0.22800
C489        C  0.15412709  0.41018366  0.39927258    -0.22800
C490        C  0.87565146  0.40244197  0.49543934    -0.18200
C491        C  0.01725614  0.39710310  0.36301466    -0.18200
C492        C  0.14975508  0.39514776  0.49836265    -0.18200
C493        C  0.00631466  0.38643225  0.63199691    -0.18200
H494        H  0.83499776  0.41111783  0.38810282     0.14700
H495        H  0.91287385  0.40990273  0.31510700     0.14700
H496        H  0.10668630  0.41644944  0.67714186     0.14700
H497        H  0.18462193  0.42468910  0.60382004     0.14700
H498        H  0.83079210  0.43062041  0.59932733     0.13000
H499        H  0.90202603  0.41694325  0.67577017     0.13000
H500        H  0.12274076  0.41117649  0.31760661     0.13000
H501        H  0.19705454  0.40862070  0.39191584     0.13000
H502        H  0.98412807  0.41276792  0.46788515     0.26300
H503        H  0.04175573  0.37851054  0.52565158     0.26300
C504        C  0.24662099  0.29695343  0.55310778     0.80400
N505        N  0.21340120  0.33957506  0.54862795    -0.78000
C506        C  0.19758419  0.35830880  0.50060266     0.82800
N507        N  0.21687750  0.33344264  0.45595864    -0.77900
C508        C  0.25114121  0.29096506  0.45891481     0.82900
N509        N  0.26513446  0.27123564  0.50800320    -0.79600
O510        O  0.21366275  0.27413416  0.14881330    -0.78400
C511        C  0.11922277  0.24995041  0.28586712     0.82700
O512        O  0.30792426  0.38162901  0.27486426    -0.79500
O513        O  0.24564564  0.22478386  0.39067516    -0.81000
O514        O  0.29159853  0.13165178  0.21793253    -0.80800
O515        O  0.28007812  0.22282535  0.12071385    -0.79400
Zn516      Zn  0.21635012  0.28797638  0.22549816     1.55700
O517        O  0.24749203  0.11391670  0.29428081    -0.80800
Cd518      Cd  0.30264558  0.20982039  0.20126775     1.59700
Cd519      Cd  0.32162267  0.29947396  0.29646578     1.59600
O520        O  0.38173645  0.22482828  0.20876410    -0.80800
O521        O  0.26775338  0.24812992  0.26138138    -1.91300
Cd522      Cd  0.22787876  0.19693912  0.31260933     1.59900
O523        O  0.40345171  0.27736131  0.27713637    -0.80700
O524        O  0.14280970  0.21110085  0.30956225    -0.79400
C525        C  0.26602603  0.39656485  0.24991450     0.83100
C526        C  0.23905914  0.25121610  0.11085406     0.82800
O527        O  0.14431778  0.28055905  0.25412176    -0.78300
C528        C  0.27296814  0.09821135  0.25186966     0.83600
O529        O  0.23303212  0.36249735  0.23290120    -0.78400
C530        C  0.41694056  0.24751112  0.23734267     0.83700
C531        C  0.26900004  0.26724015  0.40741572     0.84100
O532        O  0.29927442  0.29631001  0.37740422    -0.80900
loop_ 
_geom_bond_atom_site_label_1 
_geom_bond_atom_site_label_2 
_geom_bond_distance 
_geom_bond_site_symmetry_2 
_ccdc_geom_bond_type 
O1           C17   1.273       .  A
O1           Zn7   1.954       .  S
C2           O18   1.270       .  A
C2           O15   1.270       .  A
C2          C157   1.470       .  S
O3           C16   1.270       .  A
O3          Cd10   2.093       .  S
O4           C22   1.267       .  A
O4          Cd13   2.064       .  S
O5           C19   1.293       .  A
O5           Cd9   2.216       .  S
O6           C17   1.291       .  A
O6           Cd9   2.186       .  S
Zn7          O18   2.055       .  S
Zn7          O20   1.995       .  S
Zn7          O12   1.933       .  S
O8           C19   1.270       .  A
O8          Cd13   2.002       .  S
Cd9          O11   2.230       .  S
Cd9          O12   2.078       .  S
Cd10         O14   2.017       .  S
Cd10         O23   2.056       .  S
Cd10         O12   1.970       .  S
O11          C21   1.294       .  A
O12         Cd13   1.965       .  S
Cd13         O15   2.019       .  S
O14          C21   1.274       .  A
C16          O20   1.272       .  A
C16          C49   1.474       .  S
C17          C53   1.493       .  S
C19         C151   1.503       .  S
C21         C255   1.513       .  S
C22          O23   1.276       .  A
C22         C263   1.466       .  S
O24          C40   1.264       .  A
O24         Zn30   1.917       .  S
C25          O41   1.266       .  A
C25          O38   1.278       .  A
C25          C55   1.472       .  S
O26          C39   1.273       .  A
O26         Cd33   2.131       .  S
O27          C45   1.276       .  A
O27         Cd36   2.095       .  S
O28          C42   1.283       .  A
O28         Cd32   2.123       .  S
O29          C40   1.283       .  A
O29         Cd32   2.187       .  S
Zn30         O41   2.000       .  S
Zn30         O43   1.946       .  S
Zn30         O35   1.870       .  S
O31          C42   1.277       .  A
O31         Cd36   2.057       .  S
Cd32         O34   2.120       .  S
Cd32         O35   2.046       .  S
Cd33         O37   2.059       .  S
Cd33         O46   2.057       .  S
Cd33         O35   2.041       .  S
O34          C44   1.284       .  A
O35         Cd36   2.004       .  S
Cd36         O38   2.118       .  S
O37          C44   1.275       .  A
C39          O43   1.268       .  A
C39         C346   1.479       .  S
C40         C336   1.493       .  S
C42         C267   1.467       .  S
C44         C261   1.467       .  S
C45          O46   1.272       .  A
C45         C101   1.459       .  S
C47         C148   1.471       .  S
C47          N48   1.370       .  A
C47          N52   1.363       .  A
N48          C49   1.368       .  A
C49          N50   1.351       .  A
N50          C51   1.347       .  A
C51          C85   1.505       .  S
C51          N52   1.357       .  A
C53          N54   1.374   1_655  A
C53          N58   1.362       .  A
N54          C55   1.378       .  A
C55          N56   1.356       .  A
N56          C57   1.350       .  A
C57          C88   1.498       .  S
C57          N58   1.347   1_455  A
C59         C146   1.473       .  S
C59          N60   1.361       .  A
C59          N64   1.370   1_655  A
N60          C61   1.356   1_655  A
C61          C86   1.509       .  S
C61          N62   1.347       .  A
N62          C63   1.355       .  A
C63         C120   1.474       .  S
C63          N64   1.369       .  A
N65          C70   1.349       .  A
N65          C69   1.350       .  A
N65          H97   1.028       .  S
N66          C73   1.345       .  A
N66          C74   1.346       .  A
N67          C72   1.349       .  A
N67          C71   1.350       .  A
N67          H98   1.037       .  S
N68          C75   1.349       .  A
N68          C76   1.349       .  A
C69          C77   1.385       .  A
C69          C85   1.417       .  A
C70          C86   1.420   1_655  A
C70          C78   1.388       .  A
C71          C79   1.384       .  A
C71          C88   1.409       .  A
C72          C87   1.415       .  A
C72          C80   1.389       .  A
C73          C85   1.419       .  A
C73          C81   1.389       .  A
C74          C88   1.413   1_655  A
C74          C82   1.385       .  A
C75          C83   1.388       .  A
C75          C86   1.425       .  A
C76          C84   1.386       .  A
C76          C87   1.420       .  A
C77          C78   1.376       .  A
C77          H89   1.082       .  S
C78          H90   1.082       .  S
C79          C80   1.378       .  A
C79          H91   1.083       .  S
C80          H92   1.082       .  S
C81          C82   1.377       .  A
C81          H93   1.083       .  S
C82          H94   1.082       .  S
C83          C84   1.377       .  A
C83          H95   1.083       .  S
C84          H96   1.082       .  S
C87         C103   1.502       .  S
C99         C106   1.484       .  S
C99         N100   1.369       .  A
C99         N104   1.364       .  A
N100        C101   1.372       .  A
C101        N102   1.354       .  A
N102        C103   1.348       .  A
C103        N104   1.348       .  A
O105        C121   1.262       .  A
O105       Zn111   1.995       .  S
C106        O122   1.260       .  A
C106        O119   1.283       .  A
O107        C120   1.277       .  A
O107       Cd114   2.113       .  S
O108        C126   1.286       .  A
O108       Cd117   2.131       .  S
O109        C123   1.277       .  A
O109       Cd113   2.048       .  S
O110        C121   1.275       .  A
O110       Cd113   2.093       .  S
Zn111       O122   1.898       .  S
Zn111       O124   1.969       .  S
Zn111       O116   1.878       .  S
O112        C123   1.285       .  A
O112       Cd117   2.134       .  S
Cd113       O115   2.105       .  S
Cd113       O116   1.991       .  S
Cd114       O118   2.078       .  S
Cd114       O127   2.084       .  S
Cd114       O116   2.014       .  S
O115        C125   1.277       .  A
O116       Cd117   2.032       .  S
Cd117       O119   2.178       .  S
O118        C125   1.276       .  A
C120        O124   1.272       .  A
C121        C392   1.459       .  S
C123        C396   1.466       .  S
C125        C338   1.472       .  S
C126        O127   1.279       .  A
C126        C406   1.478       .  S
O128        C144   1.261       .  A
O128       Zn134   1.893       .  S
C129        O145   1.265       .  A
C129        O142   1.279       .  A
C129        C153   1.473       .  S
O130        C143   1.271       .  A
O130       Cd137   2.122       .  S
O131        C149   1.274       .  A
O131       Cd140   2.088       .  S
O132        C146   1.286       .  A
O132       Cd136   2.133       .  S
O133        C144   1.285       .  A
O133       Cd136   2.211       .  S
Zn134       O145   1.995       .  S
Zn134       O147   1.957       .  S
Zn134       O139   1.864       .  S
O135        C146   1.277       .  A
O135       Cd140   2.064       .  S
Cd136       O138   2.134       .  S
Cd136       O139   2.055       .  S
Cd137       O141   2.053       .  S
Cd137       O150   2.048       .  S
Cd137       O139   2.031       .  S
O138        C148   1.286       .  A
O139       Cd140   2.006       .  S
Cd140       O142   2.124       .  S
O141        C148   1.274       .  A
C143        O147   1.269       .  A
C143        C394   1.479       .  S
C144        C400   1.498       .  S
C149        O150   1.272       .  A
C149        C207   1.457       .  S
C151        N152   1.375   1_556  A
C151        N156   1.362       .  A
N152        C153   1.381       .  A
C153        N154   1.360       .  A
N154        C155   1.350       .  A
C155        C190   1.503       .  S
C155        N156   1.347   1_554  A
C157        N158   1.350       .  A
C157        N162   1.370       .  A
N158        C159   1.340       .  A
C159        C191   1.494       .  S
C159        N160   1.345       .  A
N160        C161   1.356       .  A
C161        C248   1.469       .  S
C161        N162   1.372       .  A
C163        C225   1.474       .  S
C163        N164   1.379       .  A
C163        N168   1.358       .  A
N164        C165   1.375   1_554  A
C165        C250   1.499       .  S
C165        N166   1.366       .  A
N166        C167   1.350   1_556  A
C167        C192   1.501       .  S
C167        N168   1.350       .  A
N169        C174   1.348       .  A
N169        C173   1.346       .  A
N169        H201   1.030       .  S
N170        C177   1.347       .  A
N170        C178   1.350       .  A
N171        C176   1.345       .  A
N171        C175   1.346       .  A
N171        H202   1.034       .  S
N172        C179   1.350       .  A
N172        C180   1.346       .  A
C173        C181   1.393       .  A
C173        C189   1.422       .  A
C174        C190   1.410       .  A
C174        C182   1.383       .  A
C175        C183   1.383       .  A
C175        C192   1.406   1_556  A
C176        C191   1.415       .  A
C176        C184   1.390       .  A
C177        C189   1.428       .  A
C177        C185   1.393       .  A
C178        C192   1.411       .  A
C178        C186   1.381       .  A
C179        C187   1.384       .  A
C179        C190   1.415   1_556  A
C180        C188   1.390       .  A
C180        C191   1.423       .  A
C181        C182   1.381       .  A
C181        H193   1.082       .  S
C182        H194   1.083       .  S
C183        C184   1.381       .  A
C183        H195   1.082       .  S
C184        H196   1.083       .  S
C185        C186   1.375       .  A
C185        H197   1.082       .  S
C186        H198   1.083       .  S
C187        C188   1.374       .  A
C187        H199   1.082       .  S
C188        H200   1.082       .  S
C189        C205   1.499       .  S
C203        C229   1.458       .  S
C203        N204   1.349       .  A
C203        N208   1.366       .  A
N204        C205   1.347       .  A
C205        N206   1.350       .  A
N206        C207   1.353       .  A
C207        N208   1.367       .  A
O209        C225   1.267       .  A
O209       Zn215   2.009       .  S
C210        O226   1.267       .  A
C210        O223   1.281       .  A
C210        C402   1.491       .  S
O211        C224   1.273       .  A
O211       Cd218   2.124       .  S
O212        C230   1.284       .  A
O212       Cd221   2.124       .  S
O213        C227   1.279       .  A
O213       Cd217   2.065       .  S
O214        C225   1.279       .  A
O214       Cd217   2.122       .  S
Zn215       O226   1.928       .  S
Zn215       O228   1.965       .  S
Zn215       O220   1.872       .  S
O216        C227   1.280       .  A
O216       Cd221   2.106       .  S
Cd217       O219   2.094       .  S
Cd217       O220   2.005       .  S
Cd218       O222   2.049       .  S
Cd218       O231   2.063       .  S
Cd218       O220   2.033       .  S
O219        C229   1.275       .  A
O220       Cd221   2.047       .  S
Cd221       O223   2.177       .  S
O222        C229   1.272       .  A
C224        O228   1.271       .  A
C224        C446   1.480       .  S
C227        C464   1.466       .  S
C230        O231   1.275       .  A
C230        C454   1.471       .  S
O232        C248   1.271       .  A
O232       Zn238   2.052       .  S
C233        O249   1.272       .  A
C233        O246   1.292       .  A
C233        C458   1.495       .  S
O234        C247   1.270       .  A
O234       Cd241   2.086       .  S
O235        C253   1.293       .  A
O235       Cd244   2.227       .  S
O236        C250   1.269       .  A
O236       Cd240   1.998       .  S
O237        C248   1.269       .  A
O237       Cd240   2.018       .  S
Zn238       O249   1.953       .  S
Zn238       O251   2.007       .  S
Zn238       O243   1.931       .  S
O239        C250   1.294       .  A
O239       Cd244   2.212       .  S
Cd240       O242   2.062       .  S
Cd240       O243   1.972       .  S
Cd241       O245   2.058       .  S
Cd241       O254   2.010       .  S
Cd241       O243   1.963       .  S
O242        C252   1.265       .  A
O243       Cd244   2.075       .  S
Cd244       O246   2.193       .  S
O245        C252   1.277       .  A
C247        O251   1.274       .  A
C247        C452   1.475       .  S
C252        C307   1.466       .  S
C253        O254   1.273       .  A
C253        C259   1.510       .  S
C255        N256   1.364       .  A
C255        N260   1.389   1_565  A
N256        C257   1.342   1_565  A
C257        C294   1.507       .  S
C257        N258   1.342       .  A
N258        C259   1.366       .  A
C259        N260   1.390       .  A
C261        N262   1.371       .  A
C261        N266   1.362       .  A
N262        C263   1.368       .  A
C263        N264   1.344       .  A
N264        C265   1.340       .  A
C265        C295   1.497       .  S
C265        N266   1.355       .  A
C267        N268   1.355       .  A
C267        N272   1.369   1_565  A
N268        C269   1.350   1_565  A
C269        C296   1.504       .  S
C269        N270   1.351       .  A
N270        C271   1.356       .  A
C271        C331   1.467       .  S
C271        N272   1.370       .  A
N273        C278   1.355       .  A
N273        C277   1.349       .  A
N273        H305   1.039       .  S
N274        C281   1.343       .  A
N274        C282   1.347       .  A
N275        C280   1.348       .  A
N275        C279   1.349       .  A
N275        H306   1.028       .  S
N276        C283   1.348       .  A
N276        C284   1.345       .  A
C277        C285   1.389       .  A
C277        C293   1.418       .  A
C278        C294   1.414       .  A
C278        C286   1.384       .  A
C279        C287   1.387       .  A
C279        C296   1.418   1_565  A
C280        C295   1.415       .  A
C280        C288   1.386       .  A
C281        C293   1.407       .  A
C281        C289   1.385       .  A
C282        C296   1.415       .  A
C282        C290   1.387       .  A
C283        C291   1.383       .  A
C283        C294   1.411   1_565  A
C284        C292   1.391       .  A
C284        C295   1.422       .  A
C285        C286   1.379       .  A
C285        H297   1.083       .  S
C286        H298   1.082       .  S
C287        C288   1.377       .  A
C287        H299   1.082       .  S
C288        H300   1.082       .  S
C289        C290   1.373       .  A
C289        H301   1.082       .  S
C290        H302   1.082       .  S
C291        C292   1.376       .  A
C291        H303   1.082       .  S
C292        H304   1.083       .  S
C293        C309   1.491       .  S
C307        N308   1.343       .  A
C307        N312   1.371       .  A
N308        C309   1.340       .  A
C309        N310   1.357       .  A
N310        C311   1.362       .  A
C311        C334   1.475       .  S
C311        N312   1.372       .  A
O313        C329   1.265       .  A
O313       Zn319   1.991       .  S
C314        O330   1.263       .  A
C314        O327   1.284       .  A
C314        C348   1.489       .  S
O315        C328   1.276       .  A
O315       Cd322   2.136       .  S
O316        C334   1.285       .  A
O316       Cd325   2.127       .  S
O317        C331   1.276       .  A
O317       Cd321   2.056       .  S
O318        C329   1.278       .  A
O318       Cd321   2.115       .  S
Zn319       O330   1.915       .  S
Zn319       O332   1.959       .  S
Zn319       O324   1.879       .  S
O320        C331   1.282       .  A
O320       Cd325   2.119       .  S
Cd321       O323   2.098       .  S
Cd321       O324   2.002       .  S
Cd322       O326   2.072       .  S
Cd322       O335   2.074       .  S
Cd322       O324   2.030       .  S
O323        C333   1.276       .  A
O324       Cd325   2.047       .  S
Cd325       O327   2.182       .  S
O326        C333   1.275       .  A
C328        O332   1.269       .  A
C328        C342   1.483       .  S
C329        C462   1.467       .  S
C333        C504   1.466       .  S
C334        O335   1.277       .  A
C336        N337   1.374   1_556  A
C336        N341   1.359       .  A
N337        C338   1.379       .  A
C338        N339   1.358       .  A
N339        C340   1.348       .  A
C340        C376   1.505       .  S
C340        N341   1.343   1_554  A
C342        N343   1.360       .  A
C342        N347   1.378       .  A
N343        C344   1.345       .  A
C344        C375   1.497       .  S
C344        N345   1.338       .  A
N345        C346   1.354       .  A
C346        N347   1.376       .  A
C348        N349   1.377   1_556  A
C348        N353   1.366       .  A
N349        C350   1.377       .  A
C350        C526   1.477       .  S
C350        N351   1.353       .  A
N351        C352   1.337       .  A
C352        C374   1.504       .  S
C352        N353   1.347   1_554  A
N354        C359   1.344       .  A
N354        C358   1.349       .  A
N354        H386   1.029       .  S
N355        C362   1.349       .  A
N355        C363   1.347       .  A
N356        C361   1.348       .  A
N356        C360   1.345       .  A
N356        H387   1.032       .  S
N357        C364   1.351       .  A
N357        C365   1.353       .  A
C358        C366   1.387       .  A
C358        C374   1.415   1_556  A
C359        C375   1.411       .  A
C359        C367   1.387       .  A
C360        C368   1.384       .  A
C360        C377   1.405       .  A
C361        C376   1.415       .  A
C361        C369   1.390       .  A
C362        C374   1.423       .  A
C362        C370   1.389       .  A
C363        C377   1.415       .  A
C363        C371   1.385       .  A
C364        C372   1.386       .  A
C364        C375   1.422       .  A
C365        C373   1.388       .  A
C365        C376   1.426   1_556  A
C366        C367   1.379       .  A
C366        H378   1.082       .  S
C367        H379   1.083       .  S
C368        C369   1.379       .  A
C368        H380   1.083       .  S
C369        H381   1.082       .  S
C370        C371   1.373       .  A
C370        H382   1.082       .  S
C371        H383   1.082       .  S
C372        C373   1.373       .  A
C372        H384   1.083       .  S
C373        H385   1.082       .  S
C377        C390   1.491       .  S
C388        C525   1.479       .  S
C388        N389   1.354       .  A
C388        N393   1.369       .  A
N389        C390   1.341       .  A
C390        N391   1.349       .  A
N391        C392   1.357       .  A
C392        N393   1.375       .  A
C394        N395   1.374       .  A
C394        N399   1.350       .  A
N395        C396   1.377       .  A
C396        N397   1.355       .  A
N397        C398   1.345       .  A
C398        C434   1.495       .  S
C398        N399   1.339       .  A
C400        N401   1.382       .  A
C400        N405   1.364       .  A
N401        C402   1.383   1_565  A
C402        N403   1.363       .  A
N403        C404   1.340   1_545  A
C404        C433   1.503       .  S
C404        N405   1.339       .  A
C406        N407   1.362       .  A
C406        N411   1.381       .  A
N407        C408   1.352       .  A
C408        C435   1.503       .  S
C408        N409   1.342   1_565  A
N409        C410   1.355       .  A
C410        C528   1.494       .  S
C410        N411   1.375   1_545  A
N412        C417   1.350       .  A
N412        C416   1.348       .  A
N412        H444   1.034       .  S
N413        C420   1.346       .  A
N413        C421   1.350       .  A
N414        C419   1.344       .  A
N414        C418   1.348       .  A
N414        H445   1.028       .  S
N415        C422   1.350       .  A
N415        C423   1.347       .  A
C416        C424   1.389       .  A
C416        C432   1.416       .  A
C417        C433   1.412   1_545  A
C417        C425   1.385       .  A
C418        C426   1.384       .  A
C418        C435   1.410       .  A
C419        C434   1.416       .  A
C419        C427   1.390       .  A
C420        C432   1.419       .  A
C420        C428   1.388       .  A
C421        C435   1.420   1_545  A
C421        C429   1.386       .  A
C422        C430   1.384       .  A
C422        C433   1.416       .  A
C423        C431   1.390       .  A
C423        C434   1.424       .  A
C424        C425   1.379       .  A
C424        H436   1.083       .  S
C425        H437   1.082       .  S
C426        C427   1.379       .  A
C426        H438   1.082       .  S
C427        H439   1.082       .  S
C428        C429   1.374       .  A
C428        H440   1.082       .  S
C429        H441   1.082       .  S
C430        C431   1.375       .  A
C430        H442   1.082       .  S
C431        H443   1.083       .  S
C432        C448   1.495       .  S
C446        N447   1.355       .  A
C446        N451   1.380       .  A
N447        C448   1.340       .  A
C448        N449   1.339       .  A
N449        C450   1.357       .  A
C450        C530   1.486       .  S
C450        N451   1.378       .  A
C452        N453   1.369       .  A
C452        N457   1.352       .  A
N453        C454   1.370       .  A
C454        N455   1.361       .  A
N455        C456   1.356       .  A
C456        C490   1.505       .  S
C456        N457   1.349       .  A
C458        N459   1.364       .  A
C458        N463   1.372       .  A
N459        C460   1.351   1_655  A
C460        C493   1.498       .  S
C460        N461   1.349       .  A
N461        C462   1.356       .  A
C462        N463   1.376   1_455  A
C464        N465   1.369   1_655  A
C464        N469   1.355       .  A
N465        C466   1.369       .  A
C466        C511   1.466       .  S
C466        N467   1.357       .  A
N467        C468   1.353       .  A
C468        C491   1.503       .  S
C468        N469   1.349   1_455  A
N470        C475   1.348       .  A
N470        C474   1.351       .  A
N470        H502   1.028       .  S
N471        C478   1.345       .  A
N471        C479   1.344       .  A
N472        C477   1.351       .  A
N472        C476   1.352       .  A
N472        H503   1.038       .  S
N473        C480   1.347       .  A
N473        C481   1.347       .  A
C474        C482   1.386       .  A
C474        C490   1.420       .  A
C475        C491   1.420   1_655  A
C475        C483   1.388       .  A
C476        C484   1.383       .  A
C476        C493   1.412       .  A
C477        C492   1.420       .  A
C477        C485   1.390       .  A
C478        C490   1.417       .  A
C478        C486   1.389       .  A
C479        C493   1.408   1_655  A
C479        C487   1.384       .  A
C480        C488   1.386       .  A
C480        C491   1.415       .  A
C481        C489   1.387       .  A
C481        C492   1.417       .  A
C482        C483   1.377       .  A
C482        H494   1.082       .  S
C483        H495   1.082       .  S
C484        C485   1.379       .  A
C484        H496   1.083       .  S
C485        H497   1.082       .  S
C486        C487   1.376       .  A
C486        H498   1.082       .  S
C487        H499   1.082       .  S
C488        C489   1.375       .  A
C488        H500   1.083       .  S
C489        H501   1.082       .  S
C492        C506   1.503       .  S
C504        N505   1.351       .  A
C504        N509   1.369       .  A
N505        C506   1.350       .  A
C506        N507   1.357       .  A
N507        C508   1.361       .  A
C508        C531   1.477       .  S
C508        N509   1.369       .  A
O510        C526   1.267       .  A
O510       Zn516   1.948       .  S
C511        O527   1.261       .  A
C511        O524   1.281       .  A
O512        C525   1.277       .  A
O512       Cd519   2.149       .  S
O513        C531   1.285       .  A
O513       Cd522   2.123       .  S
O514        C528   1.273       .  A
O514       Cd518   2.016       .  S
O515        C526   1.268       .  A
O515       Cd518   2.120       .  S
Zn516       O527   1.929       .  S
Zn516       O529   1.920       .  S
Zn516       O521   1.858       .  S
O517        C528   1.286       .  A
O517       Cd522   2.177       .  S
Cd518       O520   2.017       .  S
Cd518       O521   1.969       .  S
Cd519       O523   2.155       .  S
Cd519       O532   2.088       .  S
Cd519       O521   2.065       .  S
O520        C530   1.274       .  A
O521       Cd522   2.055       .  S
Cd522       O524   2.147       .  S
O523        C530   1.282       .  A
C525        O529   1.264       .  A
C531        O532   1.281       .  A
