geometry optimzed in LAMMPS
_audit_creation_date              2020-11-30 
_audit_creation_method            'lammps2cif' 
_symmetry_space_group_name_H-M    'P1' 
_symmetry_Int_Tables_number       1 
_symmetry_cell_setting            triclinic 
loop_ 
_symmetry_equiv_pos_as_xyz 
  x,y,z 
_cell_length_a                    33.93062331 
_cell_length_b                    33.95279079378126 
_cell_length_c                    82.781567094051 
_cell_angle_alpha                 90.21428332757634 
_cell_angle_beta                  89.82221497555864 
_cell_angle_gamma                 120.04229436634736 
loop_ 
_atom_site_label 
_atom_site_type_symbol 
_atom_site_fract_x 
_atom_site_fract_y 
_atom_site_fract_z 
_atom_site_charge 
O1          O  0.08412326  0.30111237  0.32786587    -0.87600
C2          C  0.18707222  0.37838951  0.29627142     0.88500
Mg3        Mg  0.07647229  0.32438048  0.35113474     1.58100
O4          O  0.19827439  0.29410254  0.31709385    -0.87300
O5          O  0.08972909  0.24483050  0.31752999    -0.74600
C6          C  0.27655806  0.41346978  0.38610243     0.93500
O7          O  0.13499683  0.40939813  0.32331609    -0.74400
O8          O  0.24150872  0.41780515  0.38580129    -0.81900
Mg9        Mg  0.09437143  0.34545911  0.30768941     1.58000
C10         C  0.32802780  0.33520387  0.33676546     0.93400
O11         O  0.05243928  0.28778377  0.28976984    -0.80200
H12         H  0.17795935  0.22920788  0.32219747    -0.05500
C13         C  0.26767598  0.42210745  0.33754704     0.88400
O14         O  0.11064647  0.28877299  0.36362884    -0.74700
O15         O  0.15476651  0.34290849  0.30155818    -0.87500
O16         O  0.30611851  0.32870450  0.32365227    -0.80300
C17         C  0.24251643  0.30596807  0.27754312     0.93600
C18         C  0.05837695  0.26393431  0.27914999     0.93400
Mg19       Mg  0.24656876  0.33807339  0.35631164     1.58000
O20         O  0.28679891  0.39573521  0.37441330    -0.80200
O21         O  0.20845733  0.27294887  0.34087232    -0.74400
O22         O  0.20043587  0.29439627  0.27808770    -0.80300
O23         O  0.02990774  0.34833263  0.31389245    -0.82000
O24         O  0.13631805  0.37984437  0.38612521    -0.80300
C25         C  0.19436610  0.26397944  0.32638827     0.87900
O26         O  0.18384508  0.33632261  0.36224752    -0.87500
O27         O  0.25436032  0.38112938  0.33607370    -0.87600
O28         O  0.24856520  0.43625828  0.34734124    -0.74600
Mg29       Mg  0.14701547  0.27586508  0.29869534     1.58000
O30         O  0.26933539  0.32708412  0.28918684    -0.82000
H31         H  0.04204878  0.23646983  0.33410345    -0.05700
O32         O  0.14050440  0.38629757  0.34742817    -0.87300
H33         H  0.16497683  0.45194768  0.34229770    -0.05500
H34         H  0.15808694  0.27652455  0.37357442    -0.05700
C35         C  0.14714642  0.41723330  0.33802331     0.87800
C36         C  0.07035068  0.25996967  0.32673089     0.88400
C37         C  0.15146527  0.29991401  0.36690485     0.88500
H38         H  0.29567922  0.44630499  0.33022139    -0.05700
O39         O  0.22789974  0.38992256  0.29963874    -0.74700
Mg40       Mg  0.19022539  0.40238494  0.36596618     1.58000
H41         H  0.18036284  0.40078797  0.28902972    -0.05700
C42         C  0.01539833  0.35365902  0.32747627     0.93400
O43         O  0.06694886  0.34865025  0.37566358    -0.82000
C44         C  0.09421568  0.36725528  0.38740927     0.93500
O45         O  0.09232768  0.25753393  0.27955405    -0.81900
Mg46       Mg  0.26202527  0.35575697  0.31294656     1.58200
O47         O  0.03394480  0.35286376  0.34071220    -0.80300
O48         O  0.31399606  0.34263071  0.35005552    -0.82000
C49         C  0.35273033  0.14572705  0.18480135     0.03100
C50         C  0.35404055  0.18814595  0.18579405     0.03000
C51         C  0.36860641  0.21723317  0.17231302    -0.17500
C52         C  0.38235995  0.20533276  0.15798174     0.03100
C53         C  0.38331316  0.16420615  0.15726486     0.03000
C54         C  0.36843785  0.13491479  0.17061073    -0.17500
H55         H  0.36966272  0.10366030  0.16999934     0.05100
H56         H  0.36787190  0.24876226  0.17281264     0.05100
C57         C  0.82974854  0.12494607  0.17664633     0.03100
C58         C  0.87096376  0.16706782  0.17697879     0.03000
C59         C  0.88541128  0.19454511  0.16315895    -0.17500
C60         C  0.85968767  0.18132515  0.14889750     0.03100
C61         C  0.81818523  0.13903929  0.14841599     0.03000
C62         C  0.80428165  0.11124420  0.16230886    -0.17500
H63         H  0.77347442  0.07829292  0.16194054     0.05100
H64         H  0.91684001  0.22700891  0.16357746     0.05100
O65         O  0.25248937  0.87448735  0.33902597    -0.87600
C66         C  0.14271587  0.84620854  0.36752058     0.88500
Mg67       Mg  0.26240729  0.90595806  0.31571697     1.58100
O68         O  0.13736485  0.75098516  0.34828557    -0.87300
O69         O  0.24483670  0.81220099  0.34978154    -0.74600
C70         C  0.06237806  0.79117825  0.27927032     0.93500
O71         O  0.20098430  0.93223625  0.34247103    -0.74400
O72         O  0.09563821  0.83184926  0.27969676    -0.81900
Mg73       Mg  0.23897945  0.90779938  0.35884382     1.58000
C74         C  0.01639810  0.65754059  0.32528966     0.93400
O75         O  0.27876922  0.89071693  0.37745324    -0.80200
H76         H  0.16360207  0.71074454  0.34403879    -0.05500
C77         C  0.06842737  0.80552152  0.32657892     0.88400
O78         O  0.23100029  0.83723879  0.30271451    -0.74700
O79         O  0.17688852  0.84428303  0.36356472    -0.87500
O80         O  0.03239590  0.67331581  0.33926581    -0.80300
C81         C  0.08529305  0.72286539  0.38735884     0.93600
C82         C  0.27049854  0.86043935  0.38811411     0.93400
Mg83       Mg  0.09748396  0.74695963  0.30804108     1.58000
O84         O  0.05729845  0.76215077  0.28992083    -0.80200
O85         O  0.13628122  0.72325915  0.32430763    -0.74400
O86         O  0.12742908  0.75324061  0.38689944    -0.80300
O87         O  0.30452491  0.97581944  0.35374225    -0.82000
O88         O  0.20292079  0.90113032  0.28047322    -0.80300
C89         C  0.14606465  0.72731519  0.33923343     0.87900
O90         O  0.15755260  0.81020349  0.30331205    -0.87500
O91         O  0.08241051  0.77834096  0.32778822    -0.87600
O92         O  0.08864951  0.84075859  0.31781610    -0.74600
Mg93       Mg  0.18440495  0.78554178  0.36749217     1.58000
O94         O  0.06043422  0.71228214  0.37485637    -0.82000
H95         H  0.29487525  0.85132702  0.33389829    -0.05700
O96         O  0.19714928  0.90238991  0.31865493    -0.87300
H97         H  0.17343343  0.94477894  0.32282193    -0.05500
H98         H  0.18544366  0.77838347  0.29174346    -0.05700
C99         C  0.19022152  0.92748754  0.32762201     0.87800
C100        C  0.26564341  0.84672843  0.34067404     0.88400
C101        C  0.19081680  0.80753711  0.29876165     0.88500
H102        H  0.03916518  0.79994675  0.33357034    -0.05700
O103        O  0.10286676  0.81517328  0.36359379    -0.74700
Mg104      Mg  0.14797388  0.86799115  0.29982577     1.58000
H105        H  0.14687911  0.87543172  0.37419091    -0.05700
C106        C  0.32099527  0.99618690  0.34038368     0.93400
O107        O  0.27272001  0.93906414  0.29097887    -0.82000
C108        C  0.24523922  0.92993466  0.27924602     0.93500
O109        O  0.23492618  0.82134097  0.38758417    -0.81900
Mg110      Mg  0.07189361  0.74570713  0.35060862     1.58200
O111        O  0.30439380  0.97721877  0.32682763    -0.80300
O112        O  0.03319679  0.68053856  0.31251838    -0.82000
O113        O  0.60556539  0.73822039  0.33605195    -0.87600
C114        C  0.69152112  0.84650423  0.36473331     0.88500
Mg115      Mg  0.62489896  0.72663821  0.31264635     1.58100
O116        O  0.60399896  0.85714240  0.34618343    -0.87300
O117        O  0.55284139  0.74848288  0.34712126    -0.74600
C118        C  0.71741412  0.92653395  0.27582011     0.93500
O119        O  0.71546108  0.78723570  0.33842579    -0.74400
O120        O  0.71874264  0.88980577  0.27620369    -0.81900
Mg121      Mg  0.65395437  0.75136971  0.35535085     1.58000
C122        C  0.63873682  0.98208322  0.32466389     0.93400
O123        O  0.59975229  0.71307982  0.37468612    -0.80200
H124        H  0.53817998  0.83562359  0.34225425    -0.05500
C125        C  0.72744198  0.92018977  0.32360799     0.88400
O126        O  0.59013925  0.76167627  0.30001211    -0.74700
O127        O  0.65485414  0.81400972  0.36028419    -0.87500
O128        O  0.63714583  0.96414359  0.33835626    -0.80300
C129        C  0.62841329  0.90459731  0.38610234     0.93600
C130        C  0.58012970  0.72294076  0.38581031     0.93400
Mg131      Mg  0.64116467  0.89862171  0.30585993     1.58000
O132        O  0.69799199  0.93697401  0.28690609    -0.80200
O133        O  0.57855550  0.86257188  0.32253171    -0.74400
O134        O  0.61488410  0.86246383  0.38446119    -0.80300
O135        O  0.65358243  0.68543391  0.35040432    -0.82000
O136        O  0.67562801  0.78216586  0.27605460    -0.80300
C137        C  0.57225929  0.85143735  0.33735127     0.87900
O138        O  0.63828712  0.83482822  0.30053930    -0.87500
O139        O  0.68723019  0.90991526  0.32547030    -0.87600
O140        O  0.73880815  0.89796798  0.31412766    -0.74600
Mg141      Mg  0.58942826  0.80801561  0.36486829     1.58000
O142        O  0.64541419  0.93237699  0.37434947    -0.82000
H143        H  0.53952004  0.69781318  0.33118857    -0.05700
O144        O  0.68787025  0.79006313  0.31494553    -0.87300
H145        H  0.75401070  0.81230368  0.31824817    -0.05500
H146        H  0.57751050  0.80858463  0.28984195    -0.05700
C147        C  0.72040497  0.79669072  0.32348716     0.87800
C148        C  0.56504598  0.72653179  0.33792285     0.88400
C149        C  0.60129252  0.80229006  0.29640488     0.88500
H150        H  0.75353729  0.94821389  0.33047110    -0.05700
O151        O  0.70261693  0.88722467  0.36136900    -0.74700
Mg152      Mg  0.70250451  0.83848798  0.29601482     1.58000
H153        H  0.71519494  0.84004638  0.37129380    -0.05700
C154        C  0.65391722  0.66624911  0.33723065     0.93400
O155        O  0.64833227  0.71529384  0.28842093    -0.82000
C156        C  0.66537407  0.74046355  0.27608029     0.93500
O157        O  0.57522834  0.75758380  0.38490165    -0.81900
Mg158      Mg  0.66660550  0.92115025  0.34905688     1.58200
O159        O  0.65021140  0.68120108  0.32355659    -0.80300
O160        O  0.64429773  0.96578657  0.31153201    -0.82000
C161        C  0.81287955  0.67061561  0.18344613     0.03100
C162        C  0.85435159  0.67010860  0.18270020     0.03000
C163        C  0.86523771  0.65443319  0.16852606    -0.17500
C164        C  0.83595005  0.63983447  0.15512053     0.03100
C165        C  0.79597871  0.64310083  0.15570211     0.03000
C166        C  0.78525949  0.65860614  0.16977622    -0.17500
H167        H  0.75502076  0.66172873  0.17013477     0.05100
H168        H  0.89621909  0.65263414  0.16804042     0.05100
O169        O  0.46106156  0.05277981  0.00301471    -0.87600
C170        C  0.49369636  0.97753753  0.03256530     0.88500
Mg171      Mg  0.42505888  0.02516052  0.98078697     1.58100
O172        O  0.58584601  0.06110969  0.00998805    -0.87300
O173        O  0.52591604  0.10965641  0.01120814    -0.74600
C174        C  0.53130313  0.93001956  0.94371431     0.93500
O175        O  0.40459363  0.94521692  0.00940090    -0.74400
O176        O  0.49198538  0.92574332  0.94517250    -0.81900
Mg177      Mg  0.43220062  0.01146785  0.02418391     1.58000
C178        C  0.67465940  0.02453021  0.98791711     0.93400
O179        O  0.45224260  0.07193741  0.04191039    -0.80200
H180        H  0.62784265  0.12600103  0.00394442    -0.05500
C181        C  0.52663130  0.93243675  0.99153997     0.88400
O182        O  0.49236679  0.05924024  0.96640246    -0.74700
O183        O  0.49594935  0.01321394  0.02796123    -0.87500
O184        O  0.66048379  0.02928120  0.00166686    -0.80300
C185        C  0.62102685  0.04791995  0.04920016     0.93600
C186        C  0.48510013  0.09514921  0.05162750     0.93400
Mg187      Mg  0.58386495  0.01479936  0.97072920     1.58000
O188        O  0.56359033  0.95422175  0.95346885    -0.80200
O189        O  0.61193727  0.08119429  0.98542397    -0.74400
O190        O  0.59258865  0.06194063  0.04837736    -0.80300
O191        O  0.36478082  0.00919681  0.01987826    -0.82000
O192        O  0.42367110  0.96408020  0.94631635    -0.80300
C193        C  0.60954853  0.09085624  0.00010015     0.87900
O194        O  0.52016603  0.01322120  0.96674786    -0.87500
O195        O  0.55432348  0.97363237  0.99178830    -0.87600
O196        O  0.49007662  0.91633283  0.98345163    -0.74600
Mg197      Mg  0.55578867  0.08011391  0.02915049     1.58000
O198        O  0.62739431  0.02735280  0.03753318    -0.82000
H199        H  0.48322149  0.11671191  0.99592723    -0.05700
O200        O  0.43017559  0.96504484  0.98476444    -0.87300
H201        H  0.38878838  0.90017437  0.99096865    -0.05500
H202        H  0.55016136  0.07199340  0.95467731    -0.05700
C203        C  0.40686364  0.93538302  0.99473417     0.87800
C204        C  0.48926996  0.09385787  0.00317328     0.88400
C205        C  0.52199975  0.04873198  0.96215384     0.88500
H206        H  0.53302541  0.90978417  0.99874755    -0.05700
O207        O  0.52286188  0.96649455  0.02826604    -0.74700
Mg208      Mg  0.46041339  0.94602900  0.96552989     1.58000
H209        H  0.46538872  0.95447011  0.04006035    -0.05700
C210        C  0.34004609  0.99968806  0.00729760     0.93400
O211        O  0.38721011  0.99695770  0.95724138    -0.82000
C212        C  0.39407224  0.97663710  0.94558610     0.93500
O213        O  0.52424766  0.09950286  0.04952177    -0.81900
Mg214      Mg  0.59009625  0.00053711  0.01397177     1.58200
O215        O  0.35464836  0.99669999  0.99337061    -0.80300
O216        O  0.65041746  0.01531629  0.97523254    -0.82000
O217        O  0.55483086  0.58424641  0.99678618    -0.87600
C218        C  0.52181037  0.47546660  0.96720736     0.88500
Mg219      Mg  0.58649587  0.59043942  0.01968638     1.58100
O220        O  0.42926306  0.47226348  0.98782866    -0.87300
O221        O  0.49296125  0.58000850  0.98710751    -0.74600
C222        C  0.46973566  0.38804638  0.05472596     0.93500
O223        O  0.61075090  0.53098094  0.99189733    -0.74400
O224        O  0.51046312  0.42069297  0.05338923    -0.81900
Mg225      Mg  0.58623542  0.57067618  0.97660131     1.58000
C226        C  0.33263762  0.34904028  0.00931616     0.93400
O227        O  0.57118517  0.61178944  0.95849941    -0.80200
H228        H  0.38966913  0.49867351  0.99306648    -0.05500
C229        C  0.48015309  0.39695710  0.00680416     0.88400
O230        O  0.51738163  0.55895250  0.03259412    -0.74700
O231        O  0.52167212  0.51003091  0.97188752    -0.87500
O232        O  0.34814573  0.36753555  0.99560298    -0.80300
C233        C  0.39932486  0.42570481  0.94792296     0.93600
C234        C  0.54109864  0.60429799  0.94792144     0.93400
Mg235      Mg  0.42367613  0.42569066  0.02710408     1.58000
O236        O  0.43870189  0.38318497  0.04492681    -0.80200
O237        O  0.40056500  0.46718237  0.01189688    -0.74400
O238        O  0.43142837  0.46680216  0.94902915    -0.80300
O239        O  0.65269351  0.63576208  0.98212184    -0.82000
O240        O  0.57786230  0.52663292  0.05345598    -0.80300
C241        C  0.40563884  0.47995185  0.99726520     0.87900
O242        O  0.48791496  0.48495659  0.03164605    -0.87500
O243        O  0.45327602  0.41149790  0.00652187    -0.87600
O244        O  0.51639730  0.41626626  0.01511489    -0.74600
Mg245      Mg  0.46435880  0.52077940  0.96894791     1.58000
O246        O  0.38651695  0.39901203  0.95997065    -0.82000
H247        H  0.53489477  0.62856015  0.00300069    -0.05700
O248        O  0.57956216  0.52444968  0.01551567    -0.87300
H249        H  0.62198550  0.50092726  0.01107320    -0.05500
H250        H  0.45771941  0.51434423  0.04334392    -0.05700
C251        C  0.60507099  0.51833406  0.00651921     0.87800
C252        C  0.52840903  0.59922499  0.99584038     0.88400
C253        C  0.48662518  0.51891873  0.03633018     0.88500
H254        H  0.47348564  0.36817641  0.99933567    -0.05700
O255        O  0.48956245  0.43578601  0.97067487    -0.74700
Mg256      Mg  0.54517717  0.47399307  0.03374595     1.58000
H257        H  0.55036355  0.47905967  0.96025446    -0.05700
C258        C  0.67501914  0.65042549  0.99522288     0.93400
O259        O  0.61879026  0.59727876  0.04410917    -0.82000
C260        C  0.60717393  0.56841155  0.05545164     0.93500
O261        O  0.50050850  0.57141873  0.94901221    -0.81900
Mg262      Mg  0.42044727  0.40575163  0.98397514     1.58200
O263        O  0.65919711  0.63093109  0.00875516    -0.80300
O264        O  0.35633844  0.36269117  0.02212240    -0.82000
O265        O  0.05481690  0.46623837  0.99667287    -0.87600
C266        C  0.97493009  0.49202535  0.96656737     0.88500
Mg267      Mg  0.02975393  0.43178521  0.01943291     1.58100
O268        O  0.06037220  0.58744154  0.98721842    -0.87300
O269        O  0.10991535  0.52849430  0.98603848    -0.74600
C270        C  0.93025336  0.53655486  0.05467299     0.93500
O271        O  0.94683580  0.40514137  0.99119936    -0.74400
O272        O  0.92726985  0.49763912  0.05397839    -0.81900
Mg273      Mg  0.01246243  0.43318668  0.97610126     1.58000
C274        C  0.02343581  0.67654009  0.00989017     0.93400
O275        O  0.07300159  0.45218054  0.95901837    -0.80200
H276        H  0.12532956  0.62796444  0.99358797    -0.05500
C277        C  0.93207444  0.52635264  0.00683377     0.88400
O278        O  0.06257698  0.49975032  0.03317523    -0.74700
O279        O  0.01087662  0.49498123  0.97126745    -0.87500
O280        O  0.02755766  0.66255731  0.99596635    -0.80300
C281        C  0.04155823  0.61702416  0.94763177     0.93600
C282        C  0.08995501  0.47961580  0.94722722     0.93400
Mg283      Mg  0.01458528  0.58665653  0.02722301     1.58000
O284        O  0.95403411  0.56777086  0.04452471    -0.80200
O285        O  0.08025591  0.61298846  0.01196024    -0.74400
O286        O  0.05275988  0.58633758  0.94830614    -0.80300
O287        O  0.01443042  0.36851279  0.98107577    -0.82000
O288        O  0.96944253  0.43123828  0.05459253    -0.80300
C289        C  0.09008188  0.61037129  0.99728319     0.87900
O290        O  0.01422969  0.52446291  0.03210103    -0.87500
O291        O  0.97289576  0.55556297  0.00638424    -0.87600
O292        O  0.91739724  0.49098916  0.01554335    -0.74600
Mg293      Mg  0.07641109  0.55424477  0.96784307     1.58000
O294        O  0.02526825  0.62679147  0.95986516    -0.82000
H295        H  0.12002247  0.49049627  0.00260359    -0.05700
O296        O  0.96753789  0.43296671  0.01558996    -0.87300
H297        H  0.90270788  0.38947296  0.00989239    -0.05500
H298        H  0.07256622  0.55723947  0.04436694    -0.05700
C299        C  0.93762464  0.40815137  0.00588810     0.87800
C300        C  0.09579129  0.49447812  0.99542719     0.88400
C301        C  0.05031244  0.52826212  0.03702899     0.88500
H302        H  0.90837541  0.53042561  0.99928718    -0.05700
O303        O  0.96443276  0.52210677  0.97015282    -0.74700
Mg304      Mg  0.94826455  0.46433144  0.03434968     1.58000
H305        H  0.95160420  0.46290723  0.95948735    -0.05700
C306        C  0.00688553  0.34562863  0.99397128     0.93400
O307        O  0.00302253  0.39578963  0.04339517    -0.82000
C308        C  0.98334867  0.40259620  0.05532421     0.93500
O309        O  0.09134113  0.51784293  0.94717325    -0.81900
Mg310      Mg  0.99903872  0.59080499  0.98385207     1.58200
O311        O  0.00360718  0.36099100  0.00769140    -0.80300
O312        O  0.01476094  0.65218045  0.02244905    -0.82000
O313        O  0.28531035  0.07416626  0.66931506    -0.87600
C314        C  0.36997609  0.18315431  0.69782232     0.88500
Mg315      Mg  0.30548288  0.06489929  0.64553205     1.58100
O316        O  0.27893724  0.19042522  0.68049666    -0.87300
O317        O  0.23224170  0.08265683  0.68114875    -0.74600
C318        C  0.38408659  0.26398235  0.60910362     0.93500
O319        O  0.39486386  0.12626634  0.67126056    -0.74400
O320        O  0.39243427  0.23144115  0.60986171    -0.81900
Mg321      Mg  0.33385139  0.08778516  0.68837368     1.58000
C322        C  0.30529274  0.31215155  0.65944073     0.93400
O323        O  0.27944995  0.04730558  0.70783226    -0.80200
H324        H  0.21213530  0.16535736  0.67772642    -0.05500
C325        C  0.39983032  0.25937823  0.65669373     0.88400
O326        O  0.26660637  0.09645874  0.63365896    -0.74700
O327        O  0.33335158  0.14972020  0.69391043    -0.87500
O328        O  0.31023283  0.29669493  0.67278993    -0.80300
C329        C  0.30499817  0.24004722  0.71996995     0.93600
C330        C  0.26065290  0.05751679  0.71919354     0.93400
Mg331      Mg  0.30899630  0.23069601  0.63991465     1.58000
O332        O  0.36073343  0.27014260  0.61986645    -0.80200
O333        O  0.24913897  0.19219258  0.65734783    -0.74400
O334        O  0.29302389  0.19801676  0.71884256    -0.80300
O335        O  0.33504702  0.02285183  0.68243306    -0.82000
O336        O  0.35541150  0.12494765  0.60968257    -0.80300
C337        C  0.24544404  0.18243481  0.67225705     0.87900
O338        O  0.31179510  0.17023914  0.63428607    -0.87500
O339        O  0.35892297  0.24550964  0.65881951    -0.87600
O340        O  0.41339869  0.23886172  0.64736916    -0.74600
Mg341      Mg  0.26780280  0.14247028  0.69904917     1.58000
O342        O  0.32037815  0.26632353  0.70781755    -0.82000
H343        H  0.21917011  0.03286211  0.66482586    -0.05700
O344        O  0.36653043  0.13045060  0.64808343    -0.87300
H345        H  0.43314817  0.15457321  0.65119480    -0.05500
H346        H  0.25054692  0.14128321  0.62382206    -0.05700
C347        C  0.39948092  0.13746274  0.65646614     0.87800
C348        C  0.24467580  0.06166331  0.67152518     0.88400
C349        C  0.27563748  0.13651191  0.63016710     0.88500
H350        H  0.42459405  0.28871622  0.66338127    -0.05700
O351        O  0.37933723  0.22331195  0.69434119    -0.74700
Mg352      Mg  0.37882250  0.17949847  0.62950746     1.58000
H353        H  0.39505462  0.17804364  0.70399264    -0.05700
C354        C  0.33944203  0.00661647  0.66908550     0.93400
O355        O  0.32775054  0.05591529  0.62051135    -0.82000
C356        C  0.34458925  0.08328261  0.60869310     0.93500
O357        O  0.25645654  0.09260293  0.71865754    -0.81900
Mg358      Mg  0.34053308  0.25528561  0.68268514     1.58200
O359        O  0.33709035  0.02331155  0.65558010    -0.80300
O360        O  0.30621778  0.29489386  0.64586399    -0.82000
C361        C  0.16908240  0.35673333  0.84793085     0.03100
C362        C  0.20559275  0.34789296  0.84812184     0.03000
C363        C  0.21680993  0.33267843  0.83409155    -0.17500
C364        C  0.19188356  0.32453932  0.81980389     0.03100
C365        C  0.15384526  0.33130938  0.81955212     0.03000
C366        C  0.14305630  0.34756290  0.83369660    -0.17500
H367        H  0.11414210  0.35291169  0.83364201     0.05100
H368        H  0.24612507  0.32794459  0.83418900     0.05100
C369        C  0.18649299  0.86501608  0.84926073     0.03100
C370        C  0.14941783  0.81962919  0.84914869     0.03000
C371        C  0.12392359  0.80202999  0.83489485    -0.17500
C372        C  0.13449557  0.82820677  0.82081575     0.03100
C373        C  0.17122637  0.87342018  0.82100968     0.03000
C374        C  0.19699004  0.89104038  0.83508956    -0.17500
H375        H  0.22532242  0.92570963  0.83506119     0.05100
H376        H  0.09531279  0.76752082  0.83477595     0.05100
O377        O  0.91588155  0.21595044  0.67187782    -0.87600
C378        C  0.81283713  0.18664833  0.70396600     0.88500
Mg379      Mg  0.92013260  0.24782550  0.64865313     1.58100
O380        O  0.80709267  0.09253202  0.68367713    -0.87300
O381        O  0.91506924  0.15705271  0.68284638    -0.74600
C382        C  0.71323928  0.12511580  0.61644892     0.93500
O383        O  0.86290149  0.27069887  0.67776540    -0.74400
O384        O  0.74504134  0.16663058  0.61687249    -0.81900
Mg385      Mg  0.90594092  0.24866156  0.69259594     1.58000
C386        C  0.68116037  0.99542018  0.66342351     0.93400
O387        O  0.95124316  0.23601707  0.71008394    -0.80200
H388        H  0.83507885  0.05495032  0.67752740    -0.05500
C389        C  0.72901470  0.14216729  0.66417632     0.88400
O390        O  0.88805706  0.17897027  0.63560790    -0.74700
O391        O  0.84653627  0.18528544  0.69904150    -0.87500
O392        O  0.69898516  0.01390338  0.67692719    -0.80300
C393        C  0.76267347  0.06202661  0.72354329     0.93600
C394        C  0.94637126  0.20857141  0.72142297     0.93400
Mg395      Mg  0.75709997  0.08480391  0.64414041     1.58000
O396        O  0.71145889  0.09608947  0.62658210    -0.80200
O397        O  0.80155370  0.06522359  0.65924183    -0.74400
O398        O  0.80456044  0.09306351  0.72260730    -0.80300
O399        O  0.96946462  0.31437437  0.68595236    -0.82000
O400        O  0.85261956  0.23990049  0.61516566    -0.80300
C401        C  0.81504636  0.07000101  0.67379588     0.87900
O402        O  0.81440996  0.14915275  0.63805668    -0.87500
O403        O  0.74524023  0.11677066  0.66473517    -0.87600
O404        O  0.74595790  0.17695572  0.65515168    -0.74600
Mg405      Mg  0.85804429  0.12865628  0.70212482     1.58000
O406        O  0.73560329  0.05320952  0.71175995    -0.82000
H407        H  0.95982999  0.19577753  0.66538570    -0.05700
O408        O  0.85436397  0.24136048  0.65356410    -0.87300
H409        H  0.82948924  0.28171908  0.65962924    -0.05500
H410        H  0.84214133  0.11920875  0.62520475    -0.05700
C411        C  0.84839601  0.26548782  0.66333699     0.87800
C412        C  0.93167548  0.19025486  0.67302787     0.88400
C413        C  0.84763371  0.14804763  0.63247647     0.88500
H414        H  0.70076120  0.13546794  0.67194215    -0.05700
O415        O  0.77267133  0.15541064  0.70060049    -0.74700
Mg416      Mg  0.80162290  0.20529206  0.63576948     1.58000
H417        H  0.81766993  0.21571593  0.71092292    -0.05700
C418        C  0.98307456  0.33644576  0.67281250     0.93400
O419        O  0.92390875  0.28081725  0.62413864    -0.82000
C420        C  0.89412412  0.27053341  0.61311064     0.93500
O421        O  0.91254814  0.16802933  0.72166726    -0.81900
Mg422      Mg  0.74097218  0.08604379  0.68770368     1.58200
O423        O  0.96248166  0.32038109  0.65944952    -0.80300
O424        O  0.69580268  0.01663598  0.65016932    -0.82000
O425        O  0.75559333  0.63895808  0.65913959    -0.87600
C426        C  0.86335018  0.72357360  0.63012427     0.88500
Mg427      Mg  0.74505305  0.65931453  0.68266521     1.58100
O428        O  0.87082728  0.63383420  0.64810354    -0.87300
O429        O  0.76328463  0.58565692  0.64716529    -0.74600
C430        C  0.94470597  0.74052276  0.71907399     0.93500
O431        O  0.80487337  0.74844159  0.65668503    -0.74400
O432        O  0.91085168  0.74698312  0.71849398    -0.81900
Mg433      Mg  0.76765719  0.68632329  0.63992618     1.58000
C434        C  0.99449074  0.66256477  0.66896933     0.93400
O435        O  0.72772514  0.63099675  0.62122283    -0.80200
H436        H  0.84672772  0.56733611  0.65123221    -0.05500
C437        C  0.93964460  0.75636677  0.67115306     0.88400
O438        O  0.77818604  0.62237779  0.69491686    -0.74700
O439        O  0.83014638  0.68726879  0.63440608    -0.87500
O440        O  0.97717425  0.66473712  0.65565108    -0.80300
C441        C  0.91835854  0.65417573  0.60919140     0.93600
C442        C  0.73675398  0.61229555  0.60956734     0.93400
Mg443      Mg  0.91312670  0.66690051  0.68826522     1.58000
O444        O  0.95305737  0.72038019  0.70770028    -0.80200
O445        O  0.87465985  0.60564818  0.67130845    -0.74400
O446        O  0.87819285  0.64820412  0.60939441    -0.80300
O447        O  0.70104662  0.68338192  0.64547268    -0.82000
O448        O  0.80420710  0.70980364  0.71824947    -0.80300
C449        C  0.86371638  0.60092769  0.65649305     0.87900
O450        O  0.85171505  0.66825407  0.69374435    -0.87500
O451        O  0.92670756  0.71560936  0.66914182    -0.87600
O452        O  0.91888037  0.76941030  0.68061441    -0.74600
Mg453      Mg  0.82290225  0.62177394  0.62923156     1.58000
O454        O  0.94444207  0.66936424  0.62137373    -0.82000
H455        H  0.71414933  0.57293658  0.66375208    -0.05700
O456        O  0.80993561  0.72141552  0.68000238    -0.87300
H457        H  0.83250685  0.78759413  0.67663115    -0.05500
H458        H  0.82419094  0.60788702  0.70473032    -0.05700
C459        C  0.81614386  0.75382499  0.67148465     0.87800
C460        C  0.74281582  0.59828854  0.65695091     0.88400
C461        C  0.81860144  0.63214633  0.69820622     0.88500
H462        H  0.96852457  0.78143197  0.66435700    -0.05700
O463        O  0.90372209  0.73299300  0.63334761    -0.74700
Mg464      Mg  0.85943402  0.73427811  0.69858483     1.58000
H465        H  0.85790974  0.74816999  0.62375031    -0.05700
C466        C  0.68268282  0.68596863  0.65852898     0.93400
O467        O  0.73517622  0.68184475  0.70745670    -0.82000
C468        C  0.76233106  0.69850572  0.71936298     0.93500
O469        O  0.77251095  0.60916101  0.60935089    -0.81900
Mg470      Mg  0.93566292  0.69470233  0.64556500     1.58200
O471        O  0.70038499  0.68743606  0.67226702    -0.80300
O472        O  0.97823397  0.66547278  0.68251174    -0.82000
C473        C  0.63785906  0.83034433  0.84645143     0.03100
C474        C  0.63633611  0.78811799  0.84565600     0.03000
C475        C  0.65087513  0.77602784  0.83162647    -0.17500
C476        C  0.66784452  0.80566810  0.81832496     0.03100
C477        C  0.66977880  0.84842654  0.81918390     0.03000
C478        C  0.65462938  0.86000509  0.83328618    -0.17500
H479        H  0.65509092  0.89213632  0.83390394     0.05100
H480        H  0.64890317  0.74320503  0.83108490     0.05100
C481        C  0.98480098  0.47235627  0.48336052     0.03100
C482        C  0.98922734  0.51618259  0.48371539     0.03000
C483        C  0.98100680  0.53244742  0.49817675    -0.17500
C484        C  0.96896120  0.50685690  0.51237781     0.03100
C485        C  0.96345103  0.46267721  0.51217767     0.03000
C486        C  0.97147824  0.44623281  0.49763807    -0.17500
H487        H  0.96918869  0.41324959  0.49757398     0.05100
H488        H  0.98501156  0.56622991  0.49847796     0.05100
C489        C  0.47009439  0.49208615  0.48621067     0.03100
C490        C  0.51058191  0.53482288  0.48679190     0.03000
C491        C  0.53908072  0.54643129  0.50032876    -0.17500
C492        C  0.52738003  0.51661117  0.51350719     0.03100
C493        C  0.48585364  0.47456823  0.51310716     0.03000
C494        C  0.45796053  0.46263408  0.49942462    -0.17500
H495        H  0.42645100  0.43024266  0.49908730     0.05100
H496        H  0.57053315  0.57886677  0.50060086     0.05100
C497        C  0.47291948  0.97565919  0.48577566     0.03100
C498        C  0.51876709  0.98599822  0.48706491     0.03000
C499        C  0.54238627  0.00362624  0.50162357    -0.17500
C500        C  0.52204277  0.01289203  0.51482116     0.03100
C501        C  0.47656640  0.00373117  0.51332502     0.03000
C502        C  0.45260157  0.98497790  0.49893224    -0.17500
H503        H  0.41768600  0.97760128  0.49796231     0.05100
H504        H  0.57683623  0.00980627  0.50269685     0.05100
C505        C  0.00278952  0.96242544  0.00238465     0.03100
C506        C  0.04342799  0.00511014  0.00403984     0.03100
C507        C  0.04221829  0.04614618  0.00277784     0.03100
C508        C  0.99972541  0.04459307  0.00109835     0.03100
C509        C  0.95872054  0.00180827  0.99945695     0.03100
C510        C  0.96038907  0.96063929  0.99991301     0.03100
C511        C  0.70753728  0.33201101  0.33387741     0.03100
C512        C  0.66551495  0.29061669  0.33557864     0.03100
C513        C  0.62437456  0.29165320  0.33749411     0.03100
C514        C  0.62518928  0.33388408  0.33741357     0.03100
C515        C  0.66721331  0.37532103  0.33549449     0.03100
C516        C  0.70853751  0.37449596  0.33395397     0.03100
C517        C  0.37316403  0.65886876  0.66234118     0.03100
C518        C  0.37732729  0.70244373  0.66525329     0.03100
C519        C  0.33756302  0.70600766  0.66774343     0.03100
C520        C  0.29411917  0.66587349  0.66764054     0.03100
C521        C  0.29016541  0.62260969  0.66549387     0.03100
C522        C  0.32946394  0.61885876  0.66281073     0.03100
C523        C  0.11098733  0.68311486  0.65667316    -0.13600
C524        C  0.11943707  0.65850242  0.66836049     0.16800
C525        C  0.08567107  0.63401212  0.68016280     0.03100
C526        C  0.04493018  0.63527582  0.68018532    -0.12100
C527        C  0.03662445  0.65976830  0.66839796    -0.03100
C528        C  0.07003471  0.68344625  0.65642783     0.02300
C529        C  0.16440616  0.66072473  0.66825974     0.09200
N530        N  0.09150909  0.60668977  0.69193289     0.65500
H531        H  0.01954591  0.61671978  0.68937144     0.18500
N532        N  0.06427331  0.71054379  0.64451701     0.76000
H533        H  0.13694449  0.70345435  0.64789314     0.10000
C534        C  0.18252867  0.65338898  0.65394815     0.03700
C535        C  0.22577522  0.65819725  0.65405065    -0.05100
C536        C  0.25129705  0.66821762  0.66828489    -0.23400
C537        C  0.23434052  0.67741654  0.68257266     0.12900
C538        C  0.19143958  0.67442320  0.68226379    -0.12600
N539        N  0.15722376  0.64010216  0.63920349     0.64600
H540        H  0.23910825  0.65311944  0.64294573     0.12400
N541        N  0.25954245  0.68933555  0.69742708     0.61200
H542        H  0.17903479  0.68267699  0.69304680     0.08600
O543        O  0.05593989  0.69680047  0.63007787    -0.40200
O544        O  0.07571929  0.75123328  0.64775423    -0.39400
O545        O  0.07230325  0.56429428  0.68971237    -0.39400
O546        O  0.10422647  0.62231083  0.70599449    -0.37100
O547        O  0.28091388  0.66948292  0.70158571    -0.38000
O548        O  0.25648393  0.71619244  0.70726885    -0.34200
O549        O  0.17167199  0.66637330  0.62717613    -0.35600
O550        O  0.12686419  0.59911534  0.63716689    -0.39900
C551        C  0.57531048  0.68903480  0.67004436    -0.13600
C552        C  0.54569895  0.66338922  0.65751043     0.16800
C553        C  0.56237988  0.64823983  0.64474540     0.03100
C554        C  0.60777779  0.65807037  0.64491268    -0.12100
C555        C  0.63727600  0.68269709  0.65772131    -0.03100
C556        C  0.62065843  0.69881372  0.67024734     0.02300
C557        C  0.49880025  0.65631287  0.65744453     0.09200
N558        N  0.53316954  0.62132105  0.63187616     0.65500
H559        H  0.61937567  0.64464251  0.63527464     0.18500
N560        N  0.64986552  0.72682776  0.68289686     0.76000
H561        H  0.56335008  0.70236620  0.67959555     0.10000
C562        C  0.46756528  0.63196256  0.66983938     0.03700
C563        C  0.42624412  0.63173216  0.67080126    -0.05100
C564        C  0.41484407  0.65510188  0.65945517    -0.23400
C565        C  0.44500959  0.67720076  0.64635065     0.12900
C566        C  0.48682320  0.67797072  0.64566447    -0.12600
N567        N  0.47780702  0.60805856  0.68174547     0.64600
H568        H  0.40380392  0.61484246  0.68091814     0.12400
N569        N  0.43379302  0.69868194  0.63364998     0.61200
H570        H  0.51057593  0.69620582  0.63599875     0.08600
O571        O  0.67324324  0.76927716  0.68083639    -0.40200
O572        O  0.64538352  0.71075214  0.69692848    -0.39400
O573        O  0.53956764  0.63761192  0.61780876    -0.39400
O574        O  0.50667631  0.57925632  0.63394447    -0.37100
O575        O  0.39371010  0.68048004  0.62823460    -0.38000
O576        O  0.46482006  0.73360144  0.62672053    -0.34200
O577        O  0.49271220  0.62613133  0.69536916    -0.35600
O578        O  0.46387479  0.56624183  0.67979493    -0.39900
C579        C  0.68713501  0.70501265  0.75237989    -0.13600
C580        C  0.71917361  0.74337207  0.76102081     0.16800
C581        C  0.76529835  0.76492328  0.75640964     0.03100
C582        C  0.77869502  0.74791529  0.74342022    -0.12100
C583        C  0.74672165  0.70998546  0.73450944    -0.03100
C584        C  0.70045277  0.68823406  0.73918589     0.02300
C585        C  0.70489497  0.75877979  0.77553811     0.09200
N586        N  0.79858924  0.80558061  0.76430411     0.65500
H587        H  0.81417900  0.76601944  0.73982359     0.18500
N588        N  0.66692157  0.64817468  0.73108436     0.76000
H589        H  0.65178529  0.68739566  0.75612222     0.10000
C590        C  0.67262056  0.77326772  0.77471490     0.03700
C591        C  0.66087708  0.78838170  0.78871943    -0.05100
C592        C  0.68136110  0.78999030  0.80361805    -0.23400
C593        C  0.71298368  0.77451494  0.80445528     0.12900
C594        C  0.72421370  0.75893385  0.79049893    -0.12600
N595        N  0.65248321  0.77403383  0.75967822     0.64600
H596        H  0.63564585  0.79893111  0.78794003     0.12400
N597        N  0.73486815  0.77544997  0.81930761     0.61200
H598        H  0.74859175  0.74727211  0.79131518     0.08600
O599        O  0.63473325  0.64869668  0.72368772    -0.40200
O600        O  0.66500162  0.61066376  0.73370072    -0.39400
O601        O  0.82879509  0.80486826  0.77294433    -0.39400
O602        O  0.80224890  0.84325773  0.76054352    -0.37100
O603        O  0.76869724  0.81214649  0.82404881    -0.38000
O604        O  0.72593509  0.73855421  0.82600533    -0.34200
O605        O  0.61255447  0.74289610  0.75641718    -0.35600
O606        O  0.67093229  0.80962974  0.75119456    -0.39900
C607        C  0.69004529  0.58351672  0.56691202    -0.13600
C608        C  0.64376127  0.56771210  0.56965171     0.16800
C609        C  0.62774124  0.56493341  0.58555809     0.03100
C610        C  0.65861958  0.57942981  0.59842165    -0.12100
C611        C  0.70512885  0.59545834  0.59572685    -0.03100
C612        C  0.72084363  0.59750897  0.57975631     0.02300
C613        C  0.61306029  0.55471147  0.55561410     0.09200
N614        N  0.58020671  0.54611088  0.58885216     0.65500
H615        H  0.64604358  0.57731425  0.61062101     0.18500
N616        N  0.76822949  0.61636603  0.57626787     0.76000
H617        H  0.70246819  0.58604497  0.55466532     0.10000
C618        C  0.59747633  0.58332185  0.54973544     0.03700
C619        C  0.56979642  0.57049302  0.53597021    -0.05100
C620        C  0.55878950  0.53018072  0.52758146    -0.23400
C621        C  0.57748892  0.50333152  0.53286654     0.12900
C622        C  0.60295239  0.51508460  0.54715483    -0.12600
N623        N  0.61193521  0.62667455  0.55702655     0.64600
H624        H  0.55704095  0.59219051  0.53174287     0.12400
N625        N  0.57381886  0.46618340  0.52335594     0.61200
H626        H  0.61700193  0.49443266  0.55130895     0.08600
O627        O  0.79426059  0.65896094  0.57649716    -0.40200
O628        O  0.78246392  0.59131528  0.57049172    -0.39400
O629        O  0.55259853  0.50527828  0.58512176    -0.39400
O630        O  0.56691158  0.56753694  0.59771169    -0.37100
O631        O  0.57899690  0.47020949  0.50823015    -0.38000
O632        O  0.57278441  0.43247916  0.53018641    -0.34200
O633        O  0.64856549  0.66100710  0.55251449    -0.35600
O634        O  0.58787165  0.63092441  0.56777087    -0.39900
C635        C  0.96400992  0.59478196  0.58269572    -0.13600
C636        C  0.95452711  0.60443578  0.56723882     0.16800
C637        C  0.93595262  0.63319747  0.56554483     0.03100
C638        C  0.92514908  0.65009132  0.57932278    -0.12100
C639        C  0.93359875  0.63953687  0.59482245    -0.03100
C640        C  0.95329530  0.61158809  0.59648329     0.02300
C641        C  0.95876744  0.57955737  0.55323532     0.09200
N642        N  0.92822430  0.64566938  0.54989243     0.65500
H643        H  0.91009802  0.67148560  0.57792561     0.18500
N644        N  0.95792704  0.59588255  0.61201456     0.76000
H645        H  0.97702714  0.57162641  0.58408008     0.10000
C646        C  0.00148541  0.58737948  0.54787299     0.03700
C647        C  0.00407356  0.56284550  0.53468671    -0.05100
C648        C  0.96444164  0.52893825  0.52717204    -0.23400
C649        C  0.92165279  0.51990566  0.53290694     0.12900
C650        C  0.91908417  0.54548809  0.54577401    -0.12600
N651        N  0.04244097  0.62038906  0.55562562     0.64600
H652        H  0.03716840  0.57019032  0.53026921     0.12400
N653        N  0.88068544  0.48543488  0.52560023     0.61200
H654        H  0.88600127  0.53852572  0.55006145     0.08600
O655        O  0.99593337  0.60119264  0.61632401    -0.40200
O656        O  0.92273045  0.56972303  0.62003962    -0.39400
O657        O  0.88878484  0.63691287  0.54589849    -0.39400
O658        O  0.96168070  0.67069670  0.54094601    -0.37100
O659        O  0.85859718  0.44695349  0.53222271    -0.38000
O660        O  0.86279063  0.49570796  0.51424707    -0.34200
O661        O  0.06318681  0.60752674  0.56492348    -0.35600
O662        O  0.06103793  0.66161344  0.55150675    -0.39900
C663        C  0.58136278  0.88161904  0.64965794    -0.13600
C664        C  0.55330073  0.86896330  0.66338206     0.16800
C665        C  0.56893414  0.89657973  0.67731166     0.03100
C666        C  0.61166638  0.93614215  0.67728270    -0.12100
C667        C  0.63950009  0.94965351  0.66345007    -0.03100
C668        C  0.62404130  0.92160200  0.64954846     0.02300
C669        C  0.50874720  0.82591114  0.66334098     0.09200
N670        N  0.54078000  0.88613419  0.69133692     0.65500
H671        H  0.62212998  0.95744899  0.68798075     0.18500
N672        N  0.65165990  0.93254465  0.63537143     0.76000
H673        H  0.57033994  0.86004792  0.63903250     0.10000
C674        C  0.47393369  0.81826190  0.65238294     0.03700
C675        C  0.43200681  0.77778571  0.65313951    -0.05100
C676        C  0.42320243  0.74476846  0.66497996    -0.23400
C677        C  0.45832286  0.75239315  0.67600231     0.12900
C678        C  0.50084586  0.79231244  0.67474251    -0.12600
N679        N  0.48004140  0.85188068  0.64076275     0.64600
H680        H  0.40594255  0.77214904  0.64442389     0.12400
N681        N  0.45121915  0.72127089  0.68889915     0.61200
H682        H  0.52767384  0.79795170  0.68310072     0.08600
O683        O  0.64176103  0.94764459  0.62306217    -0.40200
O684        O  0.68072841  0.91985551  0.63422608    -0.39400
O685        O  0.54918495  0.86966957  0.70361206    -0.39400
O686        O  0.51405327  0.90171116  0.69259608    -0.37100
O687        O  0.48359814  0.71591788  0.69360248    -0.38000
O688        O  0.41459348  0.70326686  0.69688066    -0.34200
O689        O  0.49040355  0.84815662  0.62641021    -0.35600
O690        O  0.46550853  0.87878319  0.64387422    -0.39900
C691        C  0.17613612  0.51773733  0.65413239    -0.13600
C692        C  0.15417784  0.50600296  0.66915689     0.16800
C693        C  0.17762828  0.53125747  0.68292626     0.03100
C694        C  0.22203585  0.56799184  0.68139507    -0.12100
C695        C  0.24375570  0.58090638  0.66628552    -0.03100
C696        C  0.22048208  0.55507407  0.65240609     0.02300
C697        C  0.10916816  0.46387457  0.67058744     0.09200
N698        N  0.15674421  0.51972681  0.69855053     0.65500
H699        H  0.23969108  0.58688735  0.69212201     0.18500
N700        N  0.24078896  0.56579514  0.63656964     0.76000
H701        H  0.15856900  0.49724315  0.64365537     0.10000
C702        C  0.06958005  0.45915015  0.66317861     0.03700
C703        C  0.02827398  0.41784893  0.66439541    -0.05100
C704        C  0.02575332  0.38092103  0.67284947    -0.23400
C705        C  0.06549478  0.38568825  0.68015417     0.12900
C706        C  0.10652693  0.42697077  0.67905534    -0.12600
N707        N  0.07083764  0.49565477  0.65422279     0.64600
H708        H  0.99821308  0.41438216  0.65850834     0.12400
N709        N  0.06571060  0.34768361  0.68743808     0.61200
H710        H  0.13694829  0.42979639  0.68442264     0.08600
O711        O  0.22797262  0.53505424  0.62593017    -0.40200
O712        O  0.26882931  0.60627643  0.63266390    -0.39400
O713        O  0.17436035  0.50845356  0.70970870    -0.39400
O714        O  0.12079856  0.52101015  0.70126976    -0.37100
O715        O  0.08149720  0.32659602  0.67965631    -0.38000
O716        O  0.05832616  0.34072816  0.70238940    -0.34200
O717        O  0.08201706  0.50022047  0.63950904    -0.35600
O718        O  0.05040440  0.51536535  0.65965863    -0.39900
C719        C  0.69245273  0.96310801  0.75217813    -0.13600
C720        C  0.72015108  0.97603894  0.76594515     0.16800
C721        C  0.76085008  0.01860718  0.76597493     0.03100
C722        C  0.77330503  0.04669047  0.75230763    -0.12100
C723        C  0.74576587  0.03359221  0.73842573    -0.03100
C724        C  0.70437678  0.99133571  0.73862047     0.02300
C725        C  0.70723076  0.94344888  0.77966046     0.09200
N726        N  0.78998937  0.03393043  0.77978768     0.65500
H727        H  0.80504374  0.07879944  0.75255329     0.18500
N728        N  0.67494548  0.97517594  0.72489026     0.76000
H729        H  0.66192352  0.93002889  0.75167989     0.10000
C730        C  0.66340739  0.92296266  0.78668780     0.03700
C731        C  0.65221528  0.89188446  0.79931431    -0.05100
C732        C  0.68388392  0.88060933  0.80534699    -0.23400
C733        C  0.72758345  0.90050156  0.79823945     0.12900
C734        C  0.73845612  0.93093588  0.78531197    -0.12600
N735        N  0.63000150  0.93391108  0.78138020     0.64600
H736        H  0.61844680  0.87659985  0.80456365     0.12400
N737        N  0.76179034  0.89162795  0.80434040     0.61200
H738        H  0.77174249  0.94528524  0.77976876     0.08600
O739        O  0.64010119  0.97945741  0.72450404    -0.40200
O740        O  0.67890792  0.94940742  0.71480326    -0.39400
O741        O  0.82836185  0.03647392  0.77910509    -0.39400
O742        O  0.78159237  0.05337029  0.79120228    -0.37100
O743        O  0.77549987  0.90238880  0.81869772    -0.38000
O744        O  0.78355519  0.88048194  0.79474290    -0.34200
O745        O  0.59613782  0.90489580  0.77340552    -0.35600
O746        O  0.62881437  0.96716322  0.78770490    -0.39900
C747        C  0.61351383  0.08428818  0.54596045    -0.13600
C748        C  0.59562344  0.05834936  0.56004445     0.16800
C749        C  0.55352127  0.01720923  0.55911936     0.03100
C750        C  0.53031111  0.00321362  0.54433410    -0.12100
C751        C  0.54789117  0.02946375  0.53029327    -0.03100
C752        C  0.59045432  0.07003785  0.53115447     0.02300
C753        C  0.62290167  0.07393413  0.57523404     0.09200
N754        N  0.53355939  0.98942697  0.57306959     0.65500
H755        H  0.49836687  0.97137670  0.54380355     0.18500
N756        N  0.61109893  0.09690568  0.51708240     0.76000
H757        H  0.64619275  0.11540272  0.54639080     0.10000
C758        C  0.63962770  0.04791552  0.58270638     0.03700
C759        C  0.66639664  0.06441257  0.59667331    -0.05100
C760        C  0.67966378  0.10787259  0.60294780    -0.23400
C761        C  0.66330028  0.13407693  0.59538587     0.12900
C762        C  0.63467747  0.11671642  0.58180804    -0.12600
N763        N  0.63345627  0.00682015  0.57545189     0.64600
H764        H  0.67968818  0.04429897  0.60198100     0.12400
N765        N  0.67506730  0.17811314  0.60138145     0.61200
H766        H  0.62228194  0.13716529  0.57615116     0.08600
O767        O  0.64222931  0.09362873  0.50992455    -0.40200
O768        O  0.60613069  0.13060667  0.51419098    -0.39400
O769        O  0.51515096  0.00171970  0.58367722    -0.39400
O770        O  0.52561771  0.94892421  0.57306220    -0.37100
O771        O  0.70841432  0.21292173  0.59530407    -0.38000
O772        O  0.64726847  0.18262459  0.61025338    -0.34200
O773        O  0.64841821  0.00796693  0.56137768    -0.35600
O774        O  0.62123613  0.97191573  0.58403209    -0.39900
C775        C  0.95955135  0.34862634  0.57777373    -0.13600
C776        C  0.92529627  0.35439015  0.57055861     0.16800
C777        C  0.88090561  0.33088624  0.57704172     0.03100
C778        C  0.87157651  0.30241935  0.59038691    -0.12100
C779        C  0.90593392  0.29745570  0.59793076    -0.03100
C780        C  0.95040771  0.32091792  0.59144871     0.02300
C781        C  0.93545587  0.38263509  0.55572760     0.09200
N782        N  0.84525413  0.33706139  0.57064278     0.65500
H783        H  0.83736706  0.28561462  0.59530142     0.18500
N784        N  0.98624069  0.31576667  0.59820959     0.76000
H785        H  0.99348211  0.36525384  0.57264885     0.10000
C786        C  0.97153317  0.42805015  0.55512575     0.03700
C787        C  0.98043854  0.45307647  0.54083366    -0.05100
C788        C  0.95291098  0.43452184  0.52709977    -0.23400
C789        C  0.91732483  0.38868797  0.52760522     0.12900
C790        C  0.90919963  0.36327877  0.54178110    -0.12600
N791        N  0.99864694  0.44977999  0.56905740     0.64600
H792        H  0.00929603  0.48722472  0.54050088     0.12400
N793        N  0.88906150  0.36730077  0.51386204     0.61200
H794        H  0.88214747  0.32807478  0.54187673     0.08600
O795        O  0.01356865  0.34505133  0.60808418    -0.40200
O796        O  0.99581092  0.28757115  0.59200711    -0.39400
O797        O  0.81026731  0.30358655  0.56468522    -0.39400
O798        O  0.84526479  0.37364346  0.57340563    -0.37100
O799        O  0.89366907  0.33787882  0.50603558    -0.38000
O800        O  0.85368543  0.37005236  0.51183829    -0.34200
O801        O  0.03942611  0.45854737  0.56948370    -0.35600
O802        O  0.98524327  0.46855527  0.57912737    -0.39900
C803        C  0.09564684  0.79606486  0.77737098    -0.13600
C804        C  0.05058562  0.78718997  0.77829610     0.16800
C805        C  0.03180273  0.78647279  0.79364239     0.03100
C806        C  0.05950953  0.79858657  0.80740597    -0.12100
C807        C  0.10496479  0.80900007  0.80634501    -0.03100
C808        C  0.12235637  0.80505742  0.79126836     0.02300
C809        C  0.02371975  0.77675291  0.76309319     0.09200
N810        N  0.98444234  0.77170675  0.79556386     0.65500
H811        H  0.04555990  0.80012667  0.81903245     0.18500
N812        N  0.16606693  0.80822239  0.78999126     0.76000
H813        H  0.10975985  0.79481748  0.76574887     0.10000
C814        C  0.00068199  0.80000294  0.75850299     0.03700
C815        C  0.97512833  0.78779962  0.74415706    -0.05100
C816        C  0.97371386  0.75419841  0.73380440    -0.23400
C817        C  0.99801345  0.73204500  0.73826485     0.12900
C818        C  0.02208325  0.74310929  0.75280267    -0.12600
N819        N  0.00502705  0.83771349  0.76772593     0.64600
H820        H  0.95735301  0.80564867  0.74086500     0.12400
N821        N  0.99734865  0.69689236  0.72850931     0.61200
H822        H  0.03940842  0.72483872  0.75615161     0.08600
O823        O  0.19007929  0.82485446  0.77747605    -0.40200
O824        O  0.17720529  0.78763530  0.80003514    -0.39400
O825        O  0.95496053  0.73235766  0.79093196    -0.39400
O826        O  0.97233612  0.79417238  0.80440312    -0.37100
O827        O  0.03105298  0.70577439  0.71961099    -0.38000
O828        O  0.96733570  0.65598130  0.73095952    -0.34200
O829        O  0.04374213  0.87266568  0.76939548    -0.35600
O830        O  0.96994953  0.83951518  0.77159837    -0.39900
C831        C  0.01340492  0.21776197  0.75993140    -0.13600
C832        C  0.03507343  0.26477945  0.76319067     0.16800
C833        C  0.02960215  0.29297902  0.75198323     0.03100
C834        C  0.00249325  0.27396785  0.73820179    -0.12100
C835        C  0.97933218  0.22673903  0.73522779    -0.03100
C836        C  0.98555869  0.19863350  0.74624672     0.02300
C837        C  0.06455646  0.28389118  0.77791166     0.09200
N838        N  0.04953664  0.34081919  0.75475715     0.65500
H839        H  0.99792271  0.29642985  0.73014613     0.18500
N840        N  0.96513271  0.15082567  0.74348423     0.76000
H841        H  0.01858050  0.19566390  0.76795987     0.10000
C842        C  0.04904169  0.26507792  0.79342973     0.03700
C843        C  0.07830532  0.28204565  0.80679029    -0.05100
C844        C  0.12305973  0.31831796  0.80522839    -0.23400
C845        C  0.13806165  0.33888131  0.78992712     0.12900
C846        C  0.10929679  0.32074449  0.77641456    -0.12600
N847        N  0.00341808  0.22895230  0.79589943     0.64600
H848        H  0.06616732  0.26621782  0.81847538     0.12400
N849        N  0.18149320  0.37921943  0.78804205     0.61200
H850        H  0.12196229  0.33582496  0.76468059     0.08600
O851        O  0.93231988  0.12338774  0.75222159    -0.40200
O852        O  0.98494626  0.13607547  0.73445962    -0.39400
O853        O  0.07797939  0.36865162  0.74478841    -0.39400
O854        O  0.03327061  0.35497804  0.76554297    -0.37100
O855        O  0.19001568  0.41468807  0.79580279    -0.38000
O856        O  0.20745191  0.38204558  0.77659841    -0.34200
O857        O  0.99628325  0.19028662  0.80018347    -0.35600
O858        O  0.97153646  0.23782458  0.79677220    -0.39900
C859        C  0.33573753  0.43246001  0.66939184    -0.13600
C860        C  0.30074764  0.43586375  0.66186508     0.16800
C861        C  0.26641016  0.39808837  0.65346631     0.03100
C862        C  0.26794820  0.35754349  0.65254468    -0.12100
C863        C  0.30328720  0.35441637  0.66004822    -0.03100
C864        C  0.33744545  0.39235416  0.66845742     0.02300
C865        C  0.30374575  0.48073664  0.66179267     0.09200
N866        N  0.22953400  0.40030678  0.64612750     0.65500
H867        H  0.24143523  0.32848335  0.64614922     0.18500
N868        N  0.37593102  0.39163902  0.67509987     0.76000
H869        H  0.36286684  0.46175645  0.67550672     0.10000
C870        C  0.29896447  0.50025199  0.67613864     0.03700
C871        C  0.30879794  0.54550328  0.67616722    -0.05100
C872        C  0.32388175  0.57221719  0.66209657    -0.23400
C873        C  0.33088686  0.55299968  0.64789915     0.12900
C874        C  0.31990496  0.50735761  0.64786350    -0.12600
N875        N  0.28518044  0.47471867  0.69082348     0.64600
H876        H  0.30444129  0.55997625  0.68725570     0.12400
N877        N  0.35216306  0.57946192  0.63380454     0.61200
H878        H  0.32613417  0.49315852  0.63705541     0.08600
O879        O  0.40900462  0.39919653  0.66606686    -0.40200
O880        O  0.37999608  0.39063310  0.69020520    -0.39400
O881        O  0.23078283  0.40860368  0.63123468    -0.39400
O882        O  0.19332877  0.38805282  0.65400186    -0.37100
O883        O  0.39155928  0.58714012  0.63021056    -0.38000
O884        O  0.32749483  0.58037067  0.62263463    -0.34200
O885        O  0.31263389  0.48614210  0.70249402    -0.35600
O886        O  0.24663811  0.43918875  0.69181645    -0.39900
C887        C  0.35702935  0.90849462  0.65570130    -0.13600
C888        C  0.34081674  0.87973059  0.66920558     0.16800
C889        C  0.32728907  0.89457136  0.68300586     0.03100
C890        C  0.32940009  0.93691181  0.68296583    -0.12100
C891        C  0.34406686  0.96511031  0.66924795    -0.03100
C892        C  0.35854665  0.95057833  0.65555300     0.02300
C893        C  0.33988006  0.83526988  0.66887476     0.09200
N894        N  0.30902190  0.86601934  0.69687348     0.65500
H895        H  0.31744371  0.94673389  0.69354298     0.18500
N896        N  0.37561862  0.97835914  0.64146388     0.76000
H897        H  0.36897341  0.89838084  0.64519749     0.10000
C898        C  0.31852559  0.80356676  0.65626335     0.03700
C899        C  0.31992302  0.76304668  0.65600380    -0.05100
C900        C  0.34014186  0.75159938  0.66856079    -0.23400
C901        C  0.36239706  0.78385939  0.68109562     0.12900
C902        C  0.36249533  0.82531456  0.68095087    -0.12600
N903        N  0.29357012  0.81108291  0.64396292     0.64600
H904        H  0.30415263  0.73974052  0.64600261     0.12400
N905        N  0.38530934  0.77575693  0.69402360     0.61200
H906        H  0.38026666  0.84991881  0.69044316     0.08600
O907        O  0.35123162  0.96807418  0.62895309    -0.40200
O908        O  0.41729568  0.00797491  0.64061165    -0.39400
O909        O  0.33103333  0.87727143  0.70995338    -0.39400
O910        O  0.26791930  0.83464235  0.69687802    -0.37100
O911        O  0.42600866  0.80524655  0.69717403    -0.38000
O912        O  0.36222442  0.74676104  0.70465656    -0.34200
O913        O  0.30686152  0.81582421  0.62947893    -0.35600
O914        O  0.25427304  0.80444831  0.64707020    -0.39900
C915        C  0.23584996  0.02143764  0.76297581    -0.13600
C916        C  0.21595336  0.97429667  0.76165656     0.16800
C917        C  0.20988883  0.95393775  0.74633206     0.03100
C918        C  0.22518003  0.98144645  0.73251352    -0.12100
C919        C  0.24492960  0.02889202  0.73380670    -0.03100
C920        C  0.25025723  0.04881057  0.74925496     0.02300
C921        C  0.20420374  0.94760753  0.77663251     0.09200
N922        N  0.18707495  0.90551852  0.74465465     0.65500
H923        H  0.22048104  0.96567576  0.72073834     0.18500
N924        N  0.27183572  0.09698106  0.75130927     0.76000
H925        H  0.24104161  0.03715285  0.77479122     0.10000
C926        C  0.23482601  0.93602936  0.78356904     0.03700
C927        C  0.22430780  0.91331335  0.79837651    -0.05100
C928        C  0.18378867  0.90253495  0.80648054    -0.23400
C929        C  0.15427710  0.91641007  0.79993475     0.12900
C930        C  0.16431424  0.93796513  0.78487473    -0.12600
N931        N  0.27699941  0.94790455  0.77579713     0.64600
H932        H  0.24734008  0.90321161  0.80342911     0.12400
N933        N  0.11543816  0.91082035  0.80878731     0.61200
H934        H  0.14182214  0.94875619  0.77982584     0.08600
O935        O  0.31470491  0.12036816  0.75194270    -0.40200
O936        O  0.24833181  0.11441818  0.75573960    -0.39400
O937        O  0.14521645  0.88205449  0.74796376    -0.39400
O938        O  0.20694813  0.88686179  0.73789242    -0.37100
O939        O  0.12041588  0.92604397  0.82301750    -0.38000
O940        O  0.07814143  0.89790461  0.80162744    -0.34200
O941        O  0.31047148  0.98772856  0.77712838    -0.35600
O942        O  0.28068773  0.91878963  0.76742441    -0.39900
C943        C  0.28019665  0.30821649  0.75111724    -0.13600
C944        C  0.26783095  0.27962454  0.76462281     0.16800
C945        C  0.27202865  0.24042106  0.76382302     0.03100
C946        C  0.28680172  0.22971809  0.74948621    -0.12100
C947        C  0.29737301  0.25720694  0.73565155    -0.03100
C948        C  0.29507470  0.29765318  0.73678616     0.02300
C949        C  0.24874838  0.29043541  0.77907212     0.09200
N950        N  0.26153759  0.21115989  0.77747625     0.65500
H951        H  0.28928365  0.19927908  0.74910836     0.18500
N952        N  0.30622040  0.32782644  0.72340233     0.76000
H953        H  0.27702264  0.33838393  0.75152536     0.10000
C954        C  0.27302764  0.33287297  0.78693251     0.03700
C955        C  0.25303111  0.34334350  0.79978957    -0.05100
C956        C  0.20924162  0.31190595  0.80534089    -0.23400
C957        C  0.18514918  0.26888330  0.79778465     0.12900
C958        C  0.20463484  0.25906430  0.78446750    -0.12600
N959        N  0.31863236  0.36516950  0.78232189     0.64600
H960        H  0.27220168  0.37610898  0.80571397     0.12400
N961        N  0.14227048  0.23413218  0.80396205     0.61200
H962        H  0.18552412  0.22647864  0.77845651     0.08600
O963        O  0.27469475  0.32716130  0.71514255    -0.40200
O964        O  0.34608723  0.36126903  0.72221304    -0.39400
O965        O  0.22469365  0.17362914  0.77778403    -0.39400
O966        O  0.29240604  0.21857379  0.78752126    -0.37100
O967        O  0.13942130  0.22099724  0.81838228    -0.38000
O968        O  0.10956338  0.21148578  0.79441944    -0.34200
O969        O  0.32738152  0.40298404  0.77648346    -0.35600
O970        O  0.35089799  0.35921743  0.78664930    -0.39900
C971        C  0.34720652  0.02394322  0.56991557    -0.13600
C972        C  0.39451239  0.04222976  0.56808555     0.16800
C973        C  0.42413620  0.07372236  0.57962109     0.03100
C974        C  0.40656013  0.08689939  0.59245612    -0.12100
C975        C  0.35961771  0.06900125  0.59425901    -0.03100
C976        C  0.32958287  0.03724525  0.58292210     0.02300
C977        C  0.41323232  0.03115081  0.55360379     0.09200
N978        N  0.47221649  0.09162631  0.57872485     0.65500
H979        H  0.42983886  0.11075720  0.60131427     0.18500
N980        N  0.28170429  0.02039399  0.58396615     0.76000
H981        H  0.32409393  0.00055140  0.56093767     0.10000
C982        C  0.40058121  0.98601986  0.54942973     0.03700
C983        C  0.42017777  0.97760076  0.53584890    -0.05100
C984        C  0.45321507  0.01362302  0.52657348    -0.23400
C985        C  0.46470006  0.05860748  0.53039520     0.12900
C986        C  0.44455526  0.06686477  0.54379219    -0.12600
N987        N  0.36998415  0.94873232  0.55936996     0.64600
H988        H  0.41119963  0.94294037  0.53295844     0.12400
N989        N  0.49604578  0.09612106  0.52064142     0.61200
H990        H  0.45312588  0.10150059  0.54649360     0.08600
O991        O  0.25456599  0.97840786  0.58588325    -0.40200
O992        O  0.26622212  0.04643033  0.58081464    -0.39400
O993        O  0.48910274  0.06908790  0.58454872    -0.39400
O994        O  0.49808883  0.13283540  0.57505950    -0.37100
O995        O  0.48841464  0.09655638  0.50574843    -0.38000
O996        O  0.52684313  0.13180634  0.52728348    -0.34200
O997        O  0.33319342  0.91740379  0.55354936    -0.35600
O998        O  0.38228971  0.94420497  0.57328110    -0.39900
C999        C  0.38652849  0.33697351  0.57413535    -0.13600
C1000       C  0.43077913  0.35395915  0.56814231     0.16800
C1001       C  0.46000301  0.34119906  0.57570656     0.03100
C1002       C  0.44398798  0.31087879  0.58880925    -0.12100
C1003       C  0.39986230  0.29444856  0.59490832    -0.03100
C1004       C  0.37086689  0.30741079  0.58733844     0.02300
C1005       C  0.44507064  0.38436757  0.55384641     0.09200
N1006       N  0.50656850  0.36060062  0.57081059     0.65500
H1007       H  0.46666839  0.30155076  0.59465225     0.18500
N1008       N  0.32452324  0.28873216  0.59234235     0.76000
H1009       H  0.36358906  0.34593315  0.56826800     0.10000
C1010       C  0.45801830  0.37255785  0.53917900     0.03700
C1011       C  0.47078571  0.40214573  0.52596020    -0.05100
C1012       C  0.47020566  0.44303129  0.52701252    -0.23400
C1013       C  0.45461782  0.45347275  0.54125485     0.12900
C1014       C  0.44312809  0.42470716  0.55465420    -0.12600
N1015       N  0.45586612  0.32963649  0.53722477     0.64600
H1016       H  0.48104171  0.39314062  0.51477185     0.12400
N1017       N  0.44701804  0.49123915  0.54176903     0.61200
H1018       H  0.43147227  0.43324349  0.56561661     0.08600
O1019       O  0.29574558  0.24807229  0.58882867    -0.40200
O1020       O  0.31117922  0.31437396  0.59824772    -0.39400
O1021       O  0.53280619  0.40310810  0.57163610    -0.39400
O1022       O  0.52311767  0.33516070  0.56816035    -0.37100
O1023       O  0.41337091  0.48887964  0.53440954    -0.38000
O1024       O  0.47058944  0.52461473  0.55094544    -0.34200
O1025       O  0.41757567  0.29362548  0.53703102    -0.35600
O1026       O  0.49062815  0.32835235  0.53252719    -0.39900
C1027       C  0.03219809  0.25033224  0.98549673    -0.13600
C1028       C  0.99622042  0.21364442  0.99365067     0.16800
C1029       C  0.96295279  0.22059960  0.00137619     0.03100
C1030       C  0.96694569  0.26372708  0.00131066    -0.12100
C1031       C  0.00282951  0.30021287  0.99318464    -0.03100
C1032       C  0.03550905  0.29321404  0.98507491     0.02300
C1033       C  0.99625881  0.16987542  0.99535097     0.09200
N1034       N  0.92425318  0.18387278  0.00902356     0.65500
H1035       H  0.94145483  0.26858804  0.00746208     0.18500
N1036       N  0.07419208  0.33016073  0.97747210     0.76000
H1037       H  0.05890040  0.24624537  0.97996851     0.10000
C1038       C  0.00111016  0.14682289  0.98196220     0.03700
C1039       C  0.00265438  0.10673935  0.98428174    -0.05100
C1040       C  0.99879672  0.08817611  0.99970812    -0.23400
C1041       C  0.99335600  0.11097888  0.01313395     0.12900
C1042       C  0.99303990  0.15173134  0.01082635    -0.12600
N1043       N  0.00262764  0.16256192  0.96586533     0.64600
H1044       H  0.00504804  0.08887084  0.97384737     0.12400
N1045       N  0.98624924  0.09292524  0.02912590     0.61200
H1046       H  0.99033213  0.16941225  0.02130393     0.08600
O1047       O  0.07523113  0.33403747  0.96230125    -0.40200
O1048       O  0.11013994  0.35356685  0.98551029    -0.39400
O1049       O  0.91891320  0.18478190  0.02408730    -0.39400
O1050       O  0.89172723  0.15524814  0.00045880    -0.37100
O1051       O  0.94845738  0.08087993  0.03583290    -0.38000
O1052       O  0.02037441  0.10424938  0.03801760    -0.34200
O1053       O  0.03899944  0.17817111  0.95779998    -0.35600
O1054       O  0.96595510  0.15266342  0.95875973    -0.39900
C1055       C  0.05528114  0.80042049  0.00474353    -0.13600
C1056       C  0.01659590  0.79972470  0.01122390     0.16800
C1057       C  0.98216394  0.75927024  0.01828582     0.03100
C1058       C  0.98648719  0.72030783  0.01839772    -0.12100
C1059       C  0.02428333  0.72046241  0.01137197    -0.03100
C1060       C  0.05945354  0.76128008  0.00484360     0.02300
C1061       C  0.01149495  0.84047582  0.00934412     0.09200
N1062       N  0.94091714  0.75599741  0.02411275     0.65500
H1063       H  0.95870634  0.68888599  0.02308229     0.18500
N1064       N  0.10018012  0.76388615  0.99881932     0.76000
H1065       H  0.08224784  0.83150755  0.99948913     0.10000
C1066       C  0.01192158  0.86683901  0.02259744     0.03700
C1067       C  0.00842433  0.90576272  0.01997770    -0.05100
C1068       C  0.00478379  0.91948748  0.00431510    -0.23400
C1069       C  0.00277391  0.89205310  0.99107076     0.12900
C1070       C  0.00623392  0.85308537  0.99375512    -0.12600
N1071       N  0.01751341  0.85559439  0.03872874     0.64600
H1072       H  0.00861028  0.92539518  0.03027069     0.12400
N1073       N  0.99709015  0.90273173  0.97484349     0.61200
H1074       H  0.00528714  0.83262526  0.98353693     0.08600
O1075       O  0.13028137  0.76772409  0.00863963    -0.40200
O1076       O  0.10990033  0.77138921  0.98402272    -0.39400
O1077       O  0.91197843  0.75397737  0.01410886    -0.39400
O1078       O  0.92926723  0.74526125  0.03864727    -0.37100
O1079       O  0.02698045  0.93936638  0.96851669    -0.38000
O1080       O  0.96793070  0.87180022  0.96585645    -0.34200
O1081       O  0.05674652  0.86596262  0.04360382    -0.35600
O1082       O  0.98603462  0.84502987  0.04890882    -0.39900
C1083       C  0.14141538  0.74354151  0.88437868    -0.13600
C1084       C  0.09686736  0.72860784  0.88984696     0.16800
C1085       C  0.07125067  0.74574404  0.88238106     0.03100
C1086       C  0.08972432  0.77598725  0.86944632    -0.12100
C1087       C  0.13373692  0.79009648  0.86369365    -0.03100
C1088       C  0.15991472  0.77371277  0.87130046     0.02300
C1089       C  0.07874213  0.69757645  0.90399280     0.09200
N1090       N  0.02609374  0.73226666  0.88764671     0.65500
H1091       H  0.06932447  0.78834535  0.86371450     0.18500
N1092       N  0.20440483  0.78585068  0.86557683     0.76000
H1093       H  0.16183618  0.73142575  0.89022992     0.10000
C1094       C  0.07753472  0.65545827  0.90435881     0.03700
C1095       C  0.06366917  0.62903621  0.91843736    -0.05100
C1096       C  0.05039792  0.64343949  0.93235882    -0.23400
C1097       C  0.05004917  0.68495541  0.93168647     0.12900
C1098       C  0.06456100  0.71156998  0.91768767    -0.12600
N1099       N  0.08995461  0.63884245  0.89049497     0.64600
H1100       H  0.06382816  0.59722766  0.91847867     0.12400
N1101       N  0.03749318  0.70208969  0.94534238     0.61200
H1102       H  0.06602120  0.74417758  0.91770961     0.08600
O1103       O  0.23752331  0.80218625  0.87527826    -0.40200
O1104       O  0.20897902  0.77256540  0.85180535    -0.39400
O1105       O  0.01784598  0.76126268  0.89397101    -0.39400
O1106       O  0.99351983  0.69370647  0.88371736    -0.37100
O1107       O  0.06821285  0.73170187  0.95424116    -0.38000
O1108       O  0.99744188  0.69524177  0.94642239    -0.34200
O1109       O  0.12562117  0.63598323  0.89080871    -0.35600
O1110       O  0.06123532  0.61907754  0.87938484    -0.39900
C1111       C  0.10275395  0.44770788  0.90423788    -0.13600
C1112       C  0.12971270  0.42741771  0.90639005     0.16800
C1113       C  0.14540637  0.42645108  0.92213827     0.03100
C1114       C  0.13257844  0.44410451  0.93526800    -0.12100
C1115       C  0.10602242  0.46473212  0.93300070    -0.03100
C1116       C  0.09110150  0.46640925  0.91727479     0.02300
C1117       C  0.14101511  0.40847951  0.89185645     0.09200
N1118       N  0.17623820  0.41003710  0.92493382     0.65500
H1119       H  0.14429032  0.44262023  0.94729484     0.18500
N1120       N  0.06152176  0.48427871  0.91449493     0.76000
H1121       H  0.08999666  0.44842676  0.89232110     0.10000
C1122       C  0.12939022  0.36229432  0.89056731     0.03700
C1123       C  0.13846660  0.34606670  0.87615660    -0.05100
C1124       C  0.15755693  0.37450920  0.86268042    -0.23400
C1125       C  0.16922848  0.42053668  0.86399099     0.12900
C1126       C  0.16135148  0.43706449  0.87849243    -0.12600
N1127       N  0.10603083  0.33081087  0.90334775     0.64600
H1128       H  0.12973650  0.31074790  0.87534927     0.12400
N1129       N  0.19001381  0.45125167  0.85080887     0.61200
H1130       H  0.17061021  0.47254082  0.87924657     0.08600
O1131       O  0.01896423  0.45793940  0.91478999    -0.40200
O1132       O  0.07760459  0.52401763  0.90899571    -0.39400
O1133       O  0.21571464  0.43121849  0.91894774    -0.39400
O1134       O  0.16805780  0.38168521  0.93608391    -0.37100
O1135       O  0.16549578  0.45120031  0.83937535    -0.38000
O1136       O  0.23000549  0.48436015  0.85229626    -0.34200
O1137       O  0.06464694  0.31784843  0.90596489    -0.35600
O1138       O  0.12325149  0.30887054  0.90946195    -0.39900
C1139       C  0.15040972  0.15699895  0.99160495    -0.13600
C1140       C  0.16439103  0.17774902  0.00675546     0.16800
C1141       C  0.13883555  0.15509391  0.02052506     0.03100
C1142       C  0.10067632  0.11149793  0.01901714    -0.12100
C1143       C  0.08551639  0.09100027  0.00381213    -0.03100
C1144       C  0.11113775  0.11417344  0.98996294     0.02300
C1145       C  0.20687424  0.22224700  0.00807181     0.09200
N1146       N  0.14955614  0.17731649  0.03590476     0.65500
H1147       H  0.08248183  0.09392311  0.02974457     0.18500
N1148       N  0.09849462  0.09495385  0.97414049     0.76000
H1149       H  0.17020885  0.17414078  0.98097880     0.10000
C1150       C  0.24667423  0.22526836  0.01450035     0.03700
C1151       C  0.28640247  0.26763352  0.01573773    -0.05100
C1152       C  0.28780173  0.30717205  0.01007730    -0.23400
C1153       C  0.24797632  0.30432769  0.00372426     0.12900
C1154       C  0.20775666  0.26191422  0.00280436    -0.12600
N1155       N  0.24819139  0.18522998  0.01863230     0.64600
H1156       H  0.31717228  0.26925942  0.02022348     0.12400
N1157       N  0.24750948  0.34431580  0.99873525     0.61200
H1158       H  0.17710077  0.25989616  0.99802783     0.08600
O1159       O  0.11844062  0.07530405  0.96824745    -0.40200
O1160       O  0.08201184  0.11160733  0.96452210    -0.39400
O1161       O  0.13616161  0.20498240  0.03930752    -0.39400
O1162       O  0.17095013  0.16825573  0.04629472    -0.37100
O1163       O  0.24011708  0.34896654  0.98413462    -0.38000
O1164       O  0.24647662  0.37075097  0.00926861    -0.34200
O1165       O  0.24629075  0.15871343  0.00754590    -0.35600
O1166       O  0.26004631  0.18105217  0.03266377    -0.39900
C1167       C  0.79796543  0.74356924  0.00195307    -0.13600
C1168       C  0.79540022  0.78258869  0.99811362     0.16800
C1169       C  0.75347163  0.77699033  0.99273001     0.03100
C1170       C  0.71562752  0.73333701  0.99101893    -0.12100
C1171       C  0.71795364  0.69457606  0.99515771    -0.03100
C1172       C  0.75947857  0.69982663  0.00073804     0.02300
C1173       C  0.83705253  0.82862273  0.99883213     0.09200
N1174       N  0.74805427  0.81545360  0.98986063     0.65500
H1175       H  0.68349603  0.72982028  0.98719074     0.18500
N1176       N  0.76341074  0.66103013  0.00467269     0.76000
H1177       H  0.83001907  0.74701935  0.00576155     0.10000
C1178       C  0.86439148  0.84455980  0.01278709     0.03700
C1179       C  0.90399857  0.88734770  0.01272422    -0.05100
C1180       C  0.91761195  0.91521994  0.99896115    -0.23400
C1181       C  0.89007916  0.89947506  0.98493474     0.12900
C1182       C  0.85032931  0.85652203  0.98507800    -0.12600
N1183       N  0.85136164  0.81865591  0.02737513     0.64600
H1184       H  0.92372809  0.89952814  0.02372239     0.12400
N1185       N  0.90177525  0.92598377  0.97041430     0.61200
H1186       H  0.83021527  0.84423866  0.97416195     0.08600
O1187       O  0.76137670  0.64934572  0.01923766    -0.40200
O1188       O  0.77636778  0.64332728  0.99400855    -0.39400
O1189       O  0.73961402  0.82321089  0.97576947    -0.39400
O1190       O  0.74346730  0.83635258  0.00169947    -0.37100
O1191       O  0.94149696  0.94362203  0.96467739    -0.38000
O1192       O  0.87100902  0.92711914  0.96223223    -0.34200
O1193       O  0.87701055  0.80552754  0.03333301    -0.35600
O1194       O  0.81922029  0.81645256  0.03576994    -0.39900
C1195       C  0.60856393  0.66951877  0.91131122    -0.13600
C1196       C  0.58034702  0.68438934  0.90469049     0.16800
C1197       C  0.53891627  0.67296345  0.91246999     0.03100
C1198       C  0.52638995  0.64692751  0.92662297    -0.12100
C1199       C  0.55509790  0.63280038  0.93333855    -0.03100
C1200       C  0.59648464  0.64417032  0.92553178     0.02300
C1201       C  0.59464749  0.71082912  0.88948743     0.09200
N1202       N  0.51043723  0.68958263  0.90666595     0.65500
H1203       H  0.49455558  0.63839762  0.93252458     0.18500
N1204       N  0.62521441  0.62769269  0.93133087     0.76000
H1205       H  0.63972995  0.67673758  0.90519129     0.10000
C1206       C  0.63708458  0.75128278  0.88836255     0.03700
C1207       C  0.65082444  0.77456980  0.87372657    -0.05100
C1208       C  0.62302664  0.75837734  0.86003440    -0.23400
C1209       C  0.58137468  0.71707651  0.86089571     0.12900
C1210       C  0.56732384  0.69377286  0.87563241    -0.12600
N1211       N  0.66608488  0.76985599  0.90211043     0.64600
H1212       H  0.68293683  0.80622634  0.87313092     0.12400
N1213       N  0.55288317  0.69881147  0.84700820     0.61200
H1214       H  0.53537690  0.66192491  0.87620079     0.08600
O1215       O  0.66311024  0.65490748  0.93765387    -0.40200
O1216       O  0.61539453  0.58734351  0.92827834    -0.39400
O1217       O  0.51455054  0.72560497  0.91271718    -0.39400
O1218       O  0.47481443  0.66320984  0.89890412    -0.37100
O1219       O  0.55909817  0.67341416  0.83743305    -0.38000
O1220       O  0.51671816  0.70061351  0.84604863    -0.34200
O1221       O  0.70164920  0.76695650  0.90307645    -0.35600
O1222       O  0.66154772  0.79706515  0.91127541    -0.39900
C1223       C  0.36484402  0.41996598  0.90397797    -0.13600
C1224       C  0.31848224  0.38701788  0.90477317     0.16800
C1225       C  0.30029672  0.36381140  0.91941049     0.03100
C1226       C  0.32803873  0.37504499  0.93306962    -0.12100
C1227       C  0.37391214  0.40969228  0.93253763    -0.03100
C1228       C  0.39258248  0.43158438  0.91767280     0.02300
C1229       C  0.28966390  0.37719078  0.89022085     0.09200
N1230       N  0.25304230  0.33078011  0.92086874     0.65500
H1231       H  0.31281006  0.35817928  0.94436400     0.18500
N1232       N  0.43965472  0.46530779  0.91622016     0.76000
H1233       H  0.37961203  0.43682656  0.89264477     0.10000
C1234       C  0.28743185  0.41221874  0.88191558     0.03700
C1235       C  0.26047382  0.40201434  0.86810459    -0.05100
C1236       C  0.23468718  0.35716118  0.86253638    -0.23400
C1237       C  0.23770810  0.32220731  0.87054980     0.12900
C1238       C  0.26513946  0.33245713  0.88428490    -0.12600
N1239       N  0.31157594  0.45824015  0.88752906     0.64600
H1240       H  0.25939464  0.42908242  0.86178753     0.12400
N1241       N  0.21291623  0.27616616  0.86497821     0.61200
H1242       H  0.26762885  0.30550532  0.89022896     0.08600
O1243       O  0.45093462  0.50603864  0.91321598    -0.40200
O1244       O  0.46926414  0.45323715  0.91553834    -0.39400
O1245       O  0.24081761  0.28917633  0.92209900    -0.39400
O1246       O  0.22468797  0.34366437  0.92368344    -0.37100
O1247       O  0.23134731  0.26200253  0.85505154    -0.38000
O1248       O  0.17764414  0.24778008  0.87247803    -0.34200
O1249       O  0.34344963  0.48831347  0.87911838    -0.35600
O1250       O  0.29620591  0.47006605  0.89932655    -0.39900
C1251       C  0.79378241  0.04824177  0.99800309    -0.13600
C1252       C  0.79420545  0.01181807  0.99014738     0.16800
C1253       C  0.75683990  0.98224237  0.98046462     0.03100
C1254       C  0.71974546  0.98937461  0.97884260    -0.12100
C1255       C  0.71850186  0.02489777  0.98715000    -0.03100
C1256       C  0.75639519  0.05501290  0.99658750     0.02300
C1257       C  0.83446538  0.00595375  0.99198581     0.09200
N1258       N  0.75418217  0.94243432  0.97350246     0.65500
H1259       H  0.69034283  0.96501614  0.97199140     0.18500
N1260       N  0.75777950  0.09312018  0.00452364     0.76000
H1261       H  0.82257101  0.07136791  0.00534139     0.10000
C1262       C  0.86745887  0.01937959  0.97972573     0.03700
C1263       C  0.90654392  0.01604910  0.98221073    -0.05100
C1264       C  0.91433413  0.00074192  0.99698833    -0.23400
C1265       C  0.87997197  0.98515455  0.00901231     0.12900
C1266       C  0.84048628  0.98790081  0.00634423    -0.12600
N1267       N  0.86223275  0.03764019  0.96487036     0.64600
H1268       H  0.93125641  0.02594668  0.97256850     0.12400
N1269       N  0.88428863  0.96645042  0.02395011     0.61200
H1270       H  0.81474722  0.97686248  0.01570260     0.08600
O1271       O  0.76958642  0.12910851  0.99665190    -0.40200
O1272       O  0.75598681  0.09394315  0.01973912    -0.39400
O1273       O  0.74601179  0.90939477  0.98254953    -0.39400
O1274       O  0.75022444  0.93651739  0.95840847    -0.37100
O1275       O  0.91915359  0.98835378  0.03264075    -0.38000
O1276       O  0.85096157  0.93037854  0.02936735    -0.34200
O1277       O  0.85471773  0.01527161  0.95192551    -0.35600
O1278       O  0.86425089  0.07577599  0.96471200    -0.39900
C1279       C  0.21774643  0.97032192  0.99876611    -0.13600
C1280       C  0.21297002  0.00068642  0.00916592     0.16800
C1281       C  0.24876883  0.02645860  0.02017764     0.03100
C1282       C  0.28843324  0.02327388  0.01993663    -0.12100
C1283       C  0.29437593  0.99562774  0.00869819    -0.03100
C1284       C  0.25815395  0.96846827  0.99814608     0.02300
C1285       C  0.17084233  0.00485285  0.00809295     0.09200
N1286       N  0.24711992  0.05835069  0.03104195     0.65500
H1287       H  0.31592120  0.04478154  0.02802121     0.18500
N1288       N  0.26163974  0.93857952  0.98677371     0.76000
H1289       H  0.19005735  0.94800897  0.99088674     0.10000
C1290       C  0.15137730  0.00469932  0.99298716     0.03700
C1291       C  0.10968202  0.00354627  0.99231382    -0.05100
C1292       C  0.08784765  0.00645695  0.00622172    -0.23400
C1293       C  0.10828300  0.00983093  0.02148830     0.12900
C1294       C  0.14843918  0.00698978  0.02217389    -0.12600
N1295       N  0.17425084  0.00754621  0.97810543     0.64600
H1296       H  0.09488265  0.00181837  0.98069855     0.12400
N1297       N  0.08979301  0.01656954  0.03631563     0.61200
H1298       H  0.16162428  0.00552328  0.03385012     0.08600
O1299       O  0.26511490  0.94774995  0.97189660    -0.40200
O1300       O  0.25354841  0.89975764  0.99126577    -0.39400
O1301       O  0.24319324  0.05014596  0.04599947    -0.39400
O1302       O  0.26174091  0.09857686  0.02634052    -0.37100
O1303       O  0.04917318  0.00817490  0.03721329    -0.38000
O1304       O  0.11495621  0.03285296  0.04858545    -0.34200
O1305       O  0.15409818  0.97806299  0.96721888    -0.35600
O1306       O  0.21123532  0.04320419  0.97484348    -0.39900
C1307       C  0.32231778  0.91087400  0.90962099    -0.13600
C1308       C  0.30907143  0.94079257  0.90346121     0.16800
C1309       C  0.32325646  0.98267820  0.91132683     0.03100
C1310       C  0.35120304  0.99429647  0.92504129    -0.12100
C1311       C  0.36505311  0.96449950  0.93105197    -0.03100
C1312       C  0.34944219  0.92197255  0.92340775     0.02300
C1313       C  0.27851395  0.92585031  0.88928969     0.09200
N1314       N  0.30997596  0.01381237  0.90543120     0.65500
H1315       H  0.36238236  0.02675483  0.93091776     0.18500
N1316       N  0.35725563  0.88800123  0.93037356     0.76000
H1317       H  0.30999207  0.87784506  0.90402429     0.10000
C1318       C  0.29396283  0.92002232  0.87417915     0.03700
C1319       C  0.26330991  0.90034883  0.86141864    -0.05100
C1320       C  0.21695340  0.88606597  0.86338957    -0.23400
C1321       C  0.20162976  0.89350147  0.87838952     0.12900
C1322       C  0.23248087  0.91273805  0.89126667    -0.12600
N1323       N  0.34077843  0.93372035  0.87168089     0.64600
H1324       H  0.27565618  0.89546898  0.84992179     0.12400
N1325       N  0.15560801  0.88335628  0.88057981     0.61200
H1326       H  0.22052588  0.91738641  0.90287755     0.08600
O1327       O  0.38053826  0.87437248  0.92281731    -0.40200
O1328       O  0.33447344  0.86621472  0.94257252    -0.39400
O1329       O  0.28153091  0.01991439  0.91328215    -0.39400
O1330       O  0.33222157  0.04062099  0.89410137    -0.37100
O1331       O  0.13995317  0.90265380  0.87181082    -0.38000
O1332       O  0.13352650  0.86167146  0.89290948    -0.34200
O1333       O  0.35386004  0.90510267  0.87328215    -0.35600
O1334       O  0.36711650  0.97183951  0.86535757    -0.39900
C1335       C  0.63077969  0.88653208  0.88526570    -0.13600
C1336       C  0.58432512  0.85993934  0.88911651     0.16800
C1337       C  0.55526383  0.82504475  0.87835215     0.03100
C1338       C  0.57331648  0.81646286  0.86443115    -0.12100
C1339       C  0.61980096  0.84265911  0.86076024    -0.03100
C1340       C  0.64856272  0.87838354  0.87117640     0.02300
C1341       C  0.56670337  0.87209613  0.90362883     0.09200
N1342       N  0.50740012  0.79813636  0.88127607     0.65500
H1343       H  0.55087195  0.78925980  0.85637391     0.18500
N1344       N  0.69590746  0.90646094  0.86763939     0.76000
H1345       H  0.65320830  0.91456194  0.89304025     0.10000
C1346       C  0.58491502  0.87466957  0.91915638     0.03700
C1347       C  0.57202693  0.89250552  0.93210422    -0.05100
C1348       C  0.54096571  0.90796503  0.92995595    -0.23400
C1349       C  0.52204742  0.90460656  0.91443318     0.12900
C1350       C  0.53494354  0.88653257  0.90155150    -0.12600
N1351       N  0.61629338  0.85902133  0.92201776     0.64600
H1352       H  0.58677079  0.89466555  0.94389670     0.12400
N1353       N  0.49301532  0.92300496  0.91110403     0.61200
H1354       H  0.52244598  0.88681757  0.88956629     0.08600
O1355       O  0.70939465  0.94304205  0.85995212    -0.40200
O1356       O  0.72461144  0.89918523  0.87464493    -0.39400
O1357       O  0.48104185  0.80964013  0.87482690    -0.39400
O1358       O  0.49119390  0.75770716  0.88603582    -0.37100
O1359       O  0.50676621  0.96437187  0.91409118    -0.38000
O1360       O  0.45852631  0.90109599  0.90221897    -0.34200
O1361       O  0.65828745  0.88752775  0.92299259    -0.35600
O1362       O  0.60148781  0.81939940  0.92745748    -0.39900
C1363       C  0.83383342  0.56274124  0.12102879    -0.13600
C1364       C  0.87100838  0.59333851  0.11158328     0.16800
C1365       C  0.89608867  0.63935704  0.11647714     0.03100
C1366       C  0.88509985  0.65335062  0.13094208    -0.12100
C1367       C  0.84835698  0.62258303  0.14049974    -0.03100
C1368       C  0.82230037  0.57684051  0.13536701     0.02300
C1369       C  0.88316094  0.57655615  0.09676175     0.09200
N1370       N  0.93274649  0.67237210  0.10687167     0.65500
H1371       H  0.90467418  0.68874891  0.13454845     0.18500
N1372       N  0.78450073  0.54411132  0.14467220     0.76000
H1373       H  0.81375600  0.52752100  0.11728108     0.10000
C1374       C  0.89250496  0.54047240  0.09744265     0.03700
C1375       C  0.90465724  0.52594766  0.08337104    -0.05100
C1376       C  0.90885140  0.54734320  0.06845843    -0.23400
C1377       C  0.89759534  0.58216353  0.06767040     0.12900
C1378       C  0.88466685  0.59617924  0.08171331    -0.12600
N1379       N  0.89263344  0.52008941  0.11250650     0.64600
H1380       H  0.91349781  0.49955975  0.08434842     0.12400
N1381       N  0.89881595  0.60352005  0.05270319     0.61200
H1382       H  0.87581403  0.62261318  0.08084359     0.08600
O1383       O  0.79101268  0.53437044  0.15874211    -0.40200
O1384       O  0.74668366  0.51921674  0.13786681    -0.39400
O1385       O  0.92671772  0.69959818  0.09831754    -0.39400
O1386       O  0.97262723  0.67986564  0.10924700    -0.37100
O1387       O  0.86418778  0.58604974  0.04369930    -0.38000
O1388       O  0.93030734  0.64371718  0.05011778    -0.34200
O1389       O  0.86340231  0.47900401  0.11512525    -0.35600
O1390       O  0.92639986  0.54031050  0.12181901    -0.39900
C1391       C  0.68034939  0.63800937  0.09075646    -0.13600
C1392       C  0.68505697  0.60454470  0.09898754     0.16800
C1393       C  0.66213005  0.55940362  0.09337891     0.03100
C1394       C  0.63505367  0.54829432  0.07966715    -0.12100
C1395       C  0.63102121  0.58172692  0.07107875    -0.03100
C1396       C  0.65347120  0.62696780  0.07683467     0.02300
C1397       C  0.71316094  0.61654200  0.11364381     0.09200
N1398       N  0.66819772  0.52501368  0.10095561     0.65500
H1399       H  0.61897642  0.51355442  0.07528240     0.18500
N1400       N  0.64827160  0.66157058  0.06900423     0.76000
H1401       H  0.69716629  0.67262717  0.09527625     0.10000
C1402       C  0.75989614  0.64877591  0.11319391     0.03700
C1403       C  0.78596539  0.65764076  0.12713649    -0.05100
C1404       C  0.76646576  0.63368744  0.14145150    -0.23400
C1405       C  0.71914165  0.60272072  0.14207506     0.12900
C1406       C  0.69295674  0.59451853  0.12817605    -0.12600
N1407       N  0.78167571  0.67117383  0.09849978     0.64600
H1408       H  0.82182497  0.68285292  0.12670574     0.12400
N1409       N  0.69724859  0.57901185  0.15659869     0.61200
H1410       H  0.65675355  0.57038574  0.12865579     0.08600
O1411       O  0.68265582  0.69623266  0.06333309    -0.40200
O1412       O  0.61060590  0.66053230  0.06974841    -0.39400
O1413       O  0.63511593  0.49219532  0.10802152    -0.39400
O1414       O  0.70434258  0.52386203  0.09852167    -0.37100
O1415       O  0.67543236  0.59278722  0.16501268    -0.38000
O1416       O  0.69018022  0.53922835  0.15874802    -0.34200
O1417       O  0.79822183  0.71359283  0.09720981    -0.35600
O1418       O  0.79010018  0.64985140  0.08779232    -0.39900
C1419       C  0.61652294  0.07830172  0.33549041    -0.13600
C1420       C  0.64975377  0.11383423  0.32611327     0.16800
C1421       C  0.67681919  0.10491872  0.31547616     0.03100
C1422       C  0.67031715  0.06082481  0.31437886    -0.12100
C1423       C  0.63827588  0.02551283  0.32420058    -0.03100
C1424       C  0.61078167  0.03443257  0.33469222     0.02300
C1425       C  0.65630983  0.16015047  0.32797393     0.09200
N1426       N  0.71316887  0.14090517  0.30661351     0.65500
H1427       H  0.69250266  0.05489064  0.30655553     0.18500
N1428       N  0.57638550  0.99912450  0.34437029     0.76000
H1429       H  0.59529982  0.08483609  0.34360345     0.10000
C1430       C  0.63732822  0.17743315  0.31697571     0.03700
C1431       C  0.64062829  0.21949778  0.31996406    -0.05100
C1432       C  0.66340521  0.24571102  0.33363051    -0.23400
C1433       C  0.68435070  0.22923657  0.34442610     0.12900
C1434       C  0.67995403  0.18633072  0.34146414    -0.12600
N1435       N  0.61519290  0.15307013  0.30258098     0.64600
H1436       H  0.62612941  0.23243471  0.31127206     0.12400
N1437       N  0.71028677  0.25499684  0.35825257     0.61200
H1438       H  0.69468342  0.17286764  0.34985174     0.08600
O1439       O  0.53714823  0.97420210  0.33856738    -0.40200
O1440       O  0.58275038  0.99796036  0.35932870    -0.39400
O1441       O  0.75004453  0.16722894  0.31373225    -0.39400
O1442       O  0.71194871  0.14060019  0.29138099    -0.37100
O1443       O  0.70115858  0.28223060  0.36547219    -0.38000
O1444       O  0.74221719  0.24979801  0.36357459    -0.34200
O1445       O  0.57285945  0.13668032  0.30110162    -0.35600
O1446       O  0.63874023  0.15857746  0.29008637    -0.39900
C1447       C  0.63305813  0.54791108  0.32774344    -0.13600
C1448       C  0.66337668  0.54441347  0.33829413     0.16800
C1449       C  0.69059587  0.58124132  0.34870047     0.03100
C1450       C  0.68613594  0.62023970  0.34858069    -0.12100
C1451       C  0.65651779  0.62403625  0.33772845    -0.03100
C1452       C  0.62946252  0.58716412  0.32734781     0.02300
C1453       C  0.66599472  0.50203259  0.33797372     0.09200
N1454       N  0.72484757  0.58077829  0.35863182     0.65500
H1455       H  0.70744349  0.64855547  0.35645756     0.18500
N1456       N  0.59675698  0.58831187  0.31679771     0.76000
H1457       H  0.61161359  0.51965496  0.31985095     0.10000
C1458       C  0.65554182  0.47380444  0.35158928     0.03700
C1459       C  0.65723552  0.43346319  0.35049881    -0.05100
C1460       C  0.66768650  0.41965080  0.33585788    -0.23400
C1461       C  0.67835904  0.44806281  0.32222369     0.12900
C1462       C  0.67774956  0.48900239  0.32344127    -0.12600
N1463       N  0.64097640  0.48415781  0.36645344     0.64600
H1464       H  0.65085316  0.41351880  0.36087682     0.12400
N1465       N  0.68924044  0.43593048  0.30697078     0.61200
H1466       H  0.68568841  0.51032955  0.31293564     0.08600
O1467       O  0.55948503  0.58212934  0.32243870    -0.40200
O1468       O  0.60236851  0.58921808  0.30169997    -0.39400
O1469       O  0.75582644  0.57573543  0.35220369    -0.39400
O1470       O  0.72835583  0.59243257  0.37328923    -0.37100
O1471       O  0.65776150  0.40567428  0.29848922    -0.38000
O1472       O  0.72671805  0.46284471  0.30031003    -0.34200
O1473       O  0.60155546  0.47906734  0.36738517    -0.35600
O1474       O  0.66290097  0.48854471  0.37925896    -0.39900
C1475       C  0.63558194  0.97511530  0.42325223    -0.13600
C1476       C  0.59350867  0.94601094  0.43071026     0.16800
C1477       C  0.56367955  0.90376994  0.42337592     0.03100
C1478       C  0.57726592  0.89052085  0.40937817    -0.12100
C1479       C  0.61913445  0.91945001  0.40184822    -0.03100
C1480       C  0.64852319  0.96217304  0.40888526     0.02300
C1481       C  0.58051799  0.95970021  0.44605272     0.09200
N1482       N  0.51820182  0.87552172  0.42928563     0.65500
H1483       H  0.55359128  0.85829453  0.40378728     0.18500
N1484       N  0.69207761  0.99191606  0.40189219     0.76000
H1485       H  0.65870298  0.00765810  0.42874647     0.10000
C1486       C  0.56954226  0.93253274  0.46008775     0.03700
C1487       C  0.55046219  0.94219485  0.47350218    -0.05100
C1488       C  0.54281246  0.97905911  0.47331751    -0.23400
C1489       C  0.55786030  0.00873379  0.45999856     0.12900
C1490       C  0.57576209  0.99848707  0.44635140    -0.12600
N1491       N  0.57874084  0.89583317  0.46102702     0.64600
H1492       H  0.54102302  0.92049910  0.48405031     0.12400
N1493       N  0.55733282  0.05051723  0.46060618     0.61200
H1494       H  0.58545367  0.02052423  0.43589590     0.08600
O1495       O  0.70081543  0.03003814  0.39636879    -0.40200
O1496       O  0.72144617  0.97958497  0.40080226    -0.39400
O1497       O  0.49214026  0.89182282  0.43080043    -0.39400
O1498       O  0.50175986  0.83305485  0.43035752    -0.37100
O1499       O  0.58840714  0.08425144  0.46804866    -0.38000
O1500       O  0.52612275  0.05394523  0.45369433    -0.34200
O1501       O  0.61940106  0.90460757  0.46229241    -0.35600
O1502       O  0.54674797  0.85603382  0.46388846    -0.39900
C1503       C  0.50490187  0.61006773  0.45431451    -0.13600
C1504       C  0.54057525  0.61622296  0.44411273     0.16800
C1505       C  0.56930788  0.59937563  0.44888630     0.03100
C1506       C  0.56012748  0.57444358  0.46322865    -0.12100
C1507       C  0.52356611  0.56717211  0.47315101    -0.03100
C1508       C  0.49691180  0.58684049  0.46897027     0.02300
C1509       C  0.54795529  0.64188966  0.42888845     0.09200
N1510       N  0.60874178  0.60870139  0.43964558     0.65500
H1511       H  0.58122113  0.56012661  0.46654670     0.18500
N1512       N  0.46281136  0.58484574  0.47974132     0.76000
H1513       H  0.48368372  0.62422928  0.45098270     0.10000
C1514       C  0.54724252  0.62281086  0.41363854     0.03700
C1515       C  0.55693217  0.64954007  0.39971863    -0.05100
C1516       C  0.56553921  0.69453420  0.40058794    -0.23400
C1517       C  0.56415384  0.71271789  0.41584141     0.12900
C1518       C  0.55566730  0.68643690  0.42976032    -0.12600
N1519       N  0.53484786  0.57597127  0.41202425     0.64600
H1520       H  0.55704016  0.63476973  0.38810582     0.12400
N1521       N  0.57371809  0.75858471  0.41757605     0.61200
H1522       H  0.55608970  0.70131406  0.44141048     0.08600
O1523       O  0.42503716  0.57750659  0.47426138    -0.40200
O1524       O  0.47332448  0.59831571  0.49414422    -0.39400
O1525       O  0.64221920  0.64872409  0.43923972    -0.39400
O1526       O  0.61366649  0.57625614  0.43465165    -0.37100
O1527       O  0.54147950  0.76631889  0.42001087    -0.38000
O1528       O  0.61427223  0.79020746  0.41950128    -0.34200
O1529       O  0.49680798  0.54533148  0.41727813    -0.35600
O1530       O  0.55812325  0.56500156  0.40312856    -0.39900
C1531       C  0.70016020  0.72374147  0.23397153    -0.13600
C1532       C  0.72548219  0.70268494  0.23780665     0.16800
C1533       C  0.72680669  0.69031754  0.25389258     0.03100
C1534       C  0.70356200  0.69974125  0.26589840    -0.12100
C1535       C  0.67960730  0.72247345  0.26227376    -0.03100
C1536       C  0.67695641  0.73355446  0.24602241     0.02300
C1537       C  0.75019982  0.69380941  0.22482604     0.09200
N1538       N  0.75482035  0.67181518  0.25843439     0.65500
H1539       H  0.70693202  0.69200275  0.27833665     0.18500
N1540       N  0.64974739  0.75316222  0.24150921     0.76000
H1541       H  0.69819601  0.73222622  0.22150651     0.10000
C1542       C  0.73330120  0.64982809  0.21838584     0.03700
C1543       C  0.75551861  0.64308888  0.20533012    -0.05100
C1544       C  0.79452114  0.67957491  0.19844638    -0.23400
C1545       C  0.81232792  0.72341658  0.20518431     0.12900
C1546       C  0.79014065  0.73014358  0.21835787    -0.12600
N1547       N  0.69223728  0.61213079  0.22439066     0.64600
H1548       H  0.74144477  0.60930081  0.20017738     0.12400
N1549       N  0.85128647  0.76166254  0.19829335     0.61200
H1550       H  0.80329206  0.76408462  0.22325068     0.08600
O1551       O  0.60916719  0.73542006  0.24644279    -0.40200
O1552       O  0.66321417  0.78269490  0.23048371    -0.39400
O1553       O  0.73654109  0.63091524  0.26292605    -0.39400
O1554       O  0.79644276  0.69848231  0.26132739    -0.37100
O1555       O  0.84713780  0.77874093  0.18534614    -0.38000
O1556       O  0.88704067  0.78335583  0.20658746    -0.34200
O1557       O  0.65452190  0.60423452  0.21868456    -0.35600
O1558       O  0.69417375  0.58169119  0.23245759    -0.39900
C1559       C  0.41780679  0.11567537  0.35122373    -0.13600
C1560       C  0.44970922  0.12248444  0.33906985     0.16800
C1561       C  0.43867706  0.08753277  0.32766707     0.03100
C1562       C  0.39560144  0.04835570  0.32791831    -0.12100
C1563       C  0.36366579  0.04120885  0.34005071    -0.03100
C1564       C  0.37533209  0.07518911  0.35194055     0.02300
C1565       C  0.49443576  0.16585989  0.33854631     0.09200
N1566       N  0.47254047  0.08886882  0.31700510     0.65500
H1567       H  0.38828972  0.02173129  0.31917171     0.18500
N1568       N  0.34417455  0.06962107  0.36456053     0.76000
H1569       H  0.42591735  0.14196575  0.36018893     0.10000
C1570       C  0.50888855  0.19420241  0.32477001     0.03700
C1571       C  0.55094434  0.23471410  0.32487082    -0.05100
C1572       C  0.57961823  0.24806009  0.33840263    -0.23400
C1573       C  0.56618831  0.21894239  0.35202018     0.12900
C1574       C  0.52363584  0.17846418  0.35193393    -0.12600
N1575       N  0.48120175  0.18268478  0.31060094     0.70000
H1576       H  0.56148871  0.25606949  0.31421668     0.12400
N1577       N  0.59487061  0.22975760  0.36600187     0.61200
H1578       H  0.51313337  0.15650357  0.36242583     0.08600
O1579       O  0.31303860  0.07879274  0.36192935    -0.40200
O1580       O  0.35223264  0.06290945  0.37884918    -0.39400
O1581       O  0.50701904  0.08954653  0.32299980    -0.39400
O1582       O  0.46318948  0.07853572  0.30229713    -0.37100
O1583       O  0.61760588  0.27019413  0.37103946    -0.38000
O1584       O  0.59444861  0.19830954  0.37422900    -0.34200
O1585       O  0.44405247  0.18265766  0.31106817    -0.35600
O1586       O  0.49731567  0.18029409  0.29710879    -0.39900
C1587       C  0.92434968  0.53519222  0.33258883    -0.13600
C1588       C  0.88667618  0.53536791  0.32568871     0.16800
C1589       C  0.89297858  0.57424828  0.31745096     0.03100
C1590       C  0.93647177  0.61267284  0.31649924    -0.12100
C1591       C  0.97386157  0.61339178  0.32402152    -0.03100
C1592       C  0.96793604  0.57393596  0.33176472     0.02300
C1593       C  0.84073651  0.49508770  0.32745511     0.09200
N1594       N  0.85509190  0.57606378  0.31079030     0.65500
H1595       H  0.94052708  0.64297579  0.31070376     0.18500
N1596       N  0.00604893  0.57220939  0.33825087     0.76000
H1597       H  0.91984746  0.50513488  0.33859963     0.10000
C1598       C  0.82236215  0.46099410  0.31555977     0.03700
C1599       C  0.77867981  0.42339612  0.31762529    -0.05100
C1600       C  0.75334783  0.41782145  0.33181537    -0.23400
C1601       C  0.77268715  0.45179898  0.34400228     0.12900
C1602       C  0.81555825  0.49051606  0.34143637    -0.12600
N1603       N  0.84863679  0.46310381  0.30172227     0.64600
H1604       H  0.76482241  0.39771592  0.30823973     0.12400
N1605       N  0.75081643  0.44675433  0.35933291     0.61200
H1606       H  0.83031546  0.51647942  0.35072751     0.08600
O1607       O  0.03442489  0.57061427  0.32877256    -0.40200
O1608       O  0.00724319  0.56460731  0.35308878    -0.39400
O1609       O  0.82898921  0.58226795  0.32000957    -0.39400
O1610       O  0.85197761  0.57875215  0.29569786    -0.37100
O1611       O  0.73510474  0.40991457  0.36704265    -0.38000
O1612       O  0.75318928  0.48107510  0.36626178    -0.34200
O1613       O  0.87156816  0.44315468  0.30191608    -0.35600
O1614       O  0.85209315  0.48795996  0.28989276    -0.39900
C1615       C  0.01148708  0.62867235  0.41697805    -0.13600
C1616       C  0.03751424  0.64401466  0.43110034     0.16800
C1617       C  0.07691421  0.68748458  0.43121070     0.03100
C1618       C  0.09082783  0.71354514  0.41705448    -0.12100
C1619       C  0.06566860  0.69750469  0.40266702    -0.03100
C1620       C  0.02454419  0.65504884  0.40294413     0.02300
C1621       C  0.02525873  0.61219028  0.44492267     0.09200
N1622       N  0.10322247  0.70558445  0.44558879     0.65500
H1623       H  0.12196237  0.74619454  0.41729324     0.18500
N1624       N  0.99675784  0.63670913  0.38889275     0.76000
H1625       H  0.98152278  0.59512311  0.41662951     0.10000
C1626       C  0.98110795  0.59035756  0.45165857     0.03700
C1627       C  0.96994952  0.55818015  0.46388958    -0.05100
C1628       C  0.00187744  0.54676824  0.46956356    -0.23400
C1629       C  0.04598135  0.56842970  0.46285627     0.12900
C1630       C  0.05709455  0.60042459  0.45049066    -0.12600
N1631       N  0.94741464  0.60097841  0.44640179     0.64600
H1632       H  0.93617177  0.54225401  0.46915865     0.12400
N1633       N  0.08042147  0.56001612  0.46895800     0.61200
H1634       H  0.09081764  0.61618747  0.44521222     0.08600
O1635       O  0.96858799  0.64926635  0.38534221    -0.40200
O1636       O  0.99328444  0.60157434  0.38228421    -0.39400
O1637       O  0.14246179  0.71023933  0.44643216    -0.39400
O1638       O  0.09124788  0.72502136  0.45590527    -0.37100
O1639       O  0.10099611  0.57946759  0.48180463    -0.38000
O1640       O  0.09686651  0.54186627  0.45989502    -0.34200
O1641       O  0.91311394  0.57158262  0.43871047    -0.35600
O1642       O  0.94728429  0.63538694  0.45214257    -0.39900
C1643       C  0.31941629  0.86696146  0.43002126    -0.13600
C1644       C  0.36438865  0.90209481  0.42788928     0.16800
C1645       C  0.37943894  0.92061198  0.41240034     0.03100
C1646       C  0.34851302  0.90610005  0.39954749    -0.12100
C1647       C  0.30282798  0.87208792  0.40173151    -0.03100
C1648       C  0.28866460  0.85154449  0.41710983     0.02300
C1649       C  0.39372466  0.92166828  0.44225699     0.09200
N1650       N  0.42621845  0.95330584  0.40949801     0.65500
H1651       H  0.36041285  0.92130545  0.38776150     0.18500
N1652       N  0.24265441  0.81686237  0.42009447     0.76000
H1653       H  0.30768631  0.85257281  0.44192526     0.10000
C1654       C  0.40148384  0.96313856  0.44891251     0.03700
C1655       C  0.42788320  0.98030923  0.46289419    -0.05100
C1656       C  0.44546458  0.95588264  0.47081670    -0.23400
C1657       C  0.43513133  0.91270753  0.46465854     0.12900
C1658       C  0.41058562  0.89684395  0.45016440    -0.12600
N1659       N  0.37996859  0.98637299  0.44222243     0.64600
H1660       H  0.43393652  0.01250171  0.46780747     0.12400
N1661       N  0.44585573  0.88304930  0.47353818     0.61200
H1662       H  0.40256690  0.86385986  0.44542994     0.08600
O1663       O  0.21329916  0.82782644  0.42377938    -0.40200
O1664       O  0.23323210  0.77611816  0.42171860    -0.39400
O1665       O  0.45533171  0.94053831  0.40934427    -0.39400
O1666       O  0.43692817  0.99210265  0.40408785    -0.37100
O1667       O  0.43851094  0.87807579  0.48855401    -0.38000
O1668       O  0.45526498  0.85625168  0.46609970    -0.34200
O1669       O  0.33861942  0.97262691  0.44527419    -0.35600
O1670       O  0.40247784  0.02133320  0.43365151    -0.39900
C1671       C  0.99112901  0.78324662  0.24241750    -0.13600
C1672       C  0.97267351  0.73710777  0.23831953     0.16800
C1673       C  0.98350513  0.70950268  0.24778544     0.03100
C1674       C  0.01113618  0.72788448  0.26134651    -0.12100
C1675       C  0.03044466  0.77420397  0.26541074    -0.03100
C1676       C  0.02038249  0.80214859  0.25572129     0.02300
C1677       C  0.94238541  0.71833772  0.22409711     0.09200
N1678       N  0.96935705  0.66363228  0.24317530     0.65500
H1679       H  0.01946048  0.70600120  0.26827066     0.18500
N1680       N  0.03889410  0.84935487  0.25930148     0.76000
H1681       H  0.98300718  0.80474218  0.23516754     0.10000
C1682       C  0.89735692  0.68154948  0.22549807     0.03700
C1683       C  0.87026434  0.66453261  0.21168495    -0.05100
C1684       C  0.88614865  0.68508302  0.19659231    -0.23400
C1685       C  0.93156670  0.72092774  0.19512237     0.12900
C1686       C  0.95927031  0.73706206  0.20883411    -0.12600
N1687       N  0.87774896  0.66290628  0.24091991     0.64600
H1688       H  0.83581314  0.63632045  0.21287240     0.12400
N1689       N  0.94949422  0.74246280  0.17992891     0.61200
H1690       H  0.99396352  0.76486330  0.20761004     0.08600
O1691       O  0.01344621  0.86297756  0.26518300    -0.40200
O1692       O  0.07715583  0.87797202  0.25355437    -0.39400
O1693       O  0.98555149  0.65630638  0.23051905    -0.39400
O1694       O  0.94852202  0.63181027  0.25319350    -0.37100
O1695       O  0.94286802  0.77403378  0.17529517    -0.38000
O1696       O  0.97843638  0.73581466  0.17268058    -0.34200
O1697       O  0.87668689  0.68853030  0.25178308    -0.35600
O1698       O  0.85504194  0.62031997  0.24278713    -0.39900
C1699       C  0.87867874  0.27040587  0.11719471    -0.13600
C1700       C  0.91760652  0.27568974  0.10911639     0.16800
C1701       C  0.93691776  0.24927725  0.11421681     0.03100
C1702       C  0.91658729  0.21785525  0.12682828    -0.12100
C1703       C  0.87790667  0.21281720  0.13487108    -0.03100
C1704       C  0.85931574  0.23993457  0.13015920     0.02300
C1705       C  0.93743242  0.30897958  0.09550960     0.09200
N1706       N  0.97856026  0.25574638  0.10739200     0.65500
H1707       H  0.93186902  0.19807511  0.13072314     0.18500
N1708       N  0.82247130  0.23869562  0.13901888     0.76000
H1709       H  0.86380165  0.29080971  0.11362900     0.10000
C1710       C  0.94476218  0.29596894  0.08004574     0.03700
C1711       C  0.96336099  0.32824966  0.06763075    -0.05100
C1712       C  0.97248218  0.37309456  0.06984790    -0.23400
C1713       C  0.96518397  0.38616154  0.08529022     0.12900
C1714       C  0.94830937  0.35435274  0.09794695    -0.12600
N1715       N  0.92917394  0.24929431  0.07623569     0.64600
H1716       H  0.96715590  0.31702774  0.05575067     0.12400
N1717       N  0.97456162  0.43149555  0.08832356     0.61200
H1718       H  0.94316056  0.36505603  0.10973083     0.08600
O1719       O  0.78541649  0.22779622  0.13200821    -0.40200
O1720       O  0.82868699  0.25340115  0.15335268    -0.39400
O1721       O  0.01465146  0.29355591  0.10907159    -0.39400
O1722       O  0.98099484  0.22185016  0.10240027    -0.37100
O1723       O  0.94207186  0.43933877  0.08966479    -0.38000
O1724       O  0.01425344  0.46185849  0.09224434    -0.34200
O1725       O  0.88741767  0.22043248  0.07764056    -0.35600
O1726       O  0.95463561  0.23872166  0.06847388    -0.39900
C1727       C  0.69402535  0.10988980  0.08542411    -0.13600
C1728       C  0.70477142  0.07789926  0.09134173     0.16800
C1729       C  0.68747404  0.03547769  0.08356260     0.03100
C1730       C  0.66041659  0.02612633  0.06971791    -0.12100
C1731       C  0.64919775  0.05807457  0.06386119    -0.03100
C1732       C  0.66648844  0.10040257  0.07182062     0.02300
C1733       C  0.73376174  0.08994547  0.10581772     0.09200
N1734       N  0.69556292  0.00111422  0.08997203     0.65500
H1735       H  0.64712816  0.99340866  0.06378984     0.18500
N1736       N  0.65840331  0.13507211  0.06573779     0.76000
H1737       H  0.70762675  0.14271067  0.09131653     0.10000
C1738       C  0.78077194  0.10603547  0.10470487     0.03700
C1739       C  0.80776096  0.12115258  0.11866775    -0.05100
C1740       C  0.78884578  0.12254640  0.13369447    -0.23400
C1741       C  0.74131917  0.10577936  0.13464049     0.12900
C1742       C  0.71442076  0.08921141  0.12078025    -0.12600
N1743       N  0.80161461  0.10883713  0.08938852     0.64600
H1744       H  0.84365769  0.13228274  0.11770122     0.12400
N1745       N  0.71984824  0.10673901  0.14942627     0.61200
H1746       H  0.67827878  0.07737333  0.12155942     0.08600
O1747       O  0.68277199  0.16034790  0.05439542    -0.40200
O1748       O  0.63233808  0.14514074  0.07333338    -0.39400
O1749       O  0.67542644  0.98050693  0.10272241    -0.39400
O1750       O  0.71691667  0.98657388  0.08168398    -0.37100
O1751       O  0.73212766  0.14421258  0.15640886    -0.38000
O1752       O  0.68378634  0.07170643  0.15392200    -0.34200
O1753       O  0.80357178  0.13668100  0.07891904    -0.35600
O1754       O  0.81374988  0.08038343  0.08570184    -0.39900
C1755       C  0.75960727  0.05970975  0.21341601    -0.13600
C1756       C  0.78858052  0.04694347  0.22079754     0.16800
C1757       C  0.82946682  0.05661976  0.21301585     0.03100
C1758       C  0.84131823  0.08020016  0.19828512    -0.12100
C1759       C  0.81335365  0.09503497  0.19122117    -0.03100
C1760       C  0.77149686  0.08345463  0.19874091     0.02300
C1761       C  0.77230488  0.01735205  0.23524234     0.09200
N1762       N  0.85894976  0.04232593  0.21990586     0.65500
H1763       H  0.87311591  0.08802161  0.19251340     0.18500
N1764       N  0.74062882  0.09549560  0.19166956     0.76000
H1765       H  0.72726642  0.05071084  0.21901692     0.10000
C1766       C  0.77218794  0.03425978  0.25081719     0.03700
C1767       C  0.75511980  0.00436463  0.26395131    -0.05100
C1768       C  0.73781268  0.95752851  0.26186063    -0.23400
C1769       C  0.73855093  0.94084871  0.24625406     0.12900
C1770       C  0.75605982  0.97080392  0.23319272    -0.12600
N1771       N  0.78987379  0.08164263  0.25361290     0.64600
H1772       H  0.75507184  0.01786391  0.27583073     0.12400
N1773       N  0.71825211  0.89321672  0.24318695     0.61200
H1774       H  0.75566945  0.95743415  0.22124573     0.08600
O1775       O  0.75007365  0.13646704  0.19175590    -0.40200
O1776       O  0.70089156  0.06461635  0.18802929    -0.39400
O1777       O  0.87214671  0.01999880  0.21150822    -0.39400
O1778       O  0.87045991  0.05041089  0.23456157    -0.37100
O1779       O  0.67592183  0.86997547  0.24075545    -0.38000
O1780       O  0.74318090  0.87644098  0.23993969    -0.34200
O1781       O  0.76499483  0.09866847  0.25079019    -0.35600
O1782       O  0.82419601  0.10281319  0.26263209    -0.39900
C1783       C  0.44225656  0.30333336  0.12818548    -0.13600
C1784       C  0.41684107  0.28365641  0.11407582     0.16800
C1785       C  0.37840498  0.23956529  0.11487789     0.03100
C1786       C  0.36640382  0.21607951  0.12955077    -0.12100
C1787       C  0.39318922  0.23455369  0.14340747    -0.03100
C1788       C  0.43086899  0.27905840  0.14279572     0.02300
C1789       C  0.43021422  0.30982788  0.09870855     0.09200
N1790       N  0.35267994  0.21710174  0.10072961     0.65500
H1791       H  0.33703079  0.18244853  0.12998587     0.18500
N1792       N  0.45830366  0.29963746  0.15678708     0.76000
H1793       H  0.47143400  0.33736863  0.12777508     0.10000
C1794       C  0.39997852  0.31996275  0.09049245     0.03700
C1795       C  0.41272996  0.34238957  0.07559857    -0.05100
C1796       C  0.45620051  0.35757343  0.06900743    -0.23400
C1797       C  0.48667355  0.34795603  0.07733753     0.12900
C1798       C  0.47333321  0.32390728  0.09198760    -0.12600
N1799       N  0.35765172  0.31074555  0.09764259     0.64600
H1800       H  0.38948787  0.35087725  0.06970281     0.12400
N1801       N  0.53083434  0.36155962  0.07095466     0.61200
H1802       H  0.49668746  0.31601153  0.09812857     0.08600
O1803       O  0.46099206  0.33514313  0.16276161    -0.40200
O1804       O  0.48061734  0.28297684  0.16301472    -0.39400
O1805       O  0.37066872  0.20538220  0.08976046    -0.39400
O1806       O  0.31022899  0.20160274  0.10055905    -0.37100
O1807       O  0.56562839  0.39371671  0.07754406    -0.38000
O1808       O  0.53549478  0.33679957  0.06060788    -0.34200
O1809       O  0.35723996  0.32494439  0.11172250    -0.35600
O1810       O  0.32221762  0.29521417  0.08908012    -0.39900
C1811       C  0.39104821  0.11156190  0.11759467    -0.13600
C1812       C  0.43673239  0.14067870  0.11326508     0.16800
C1813       C  0.46549204  0.17547882  0.12411385     0.03100
C1814       C  0.44788060  0.18081234  0.13879063    -0.12100
C1815       C  0.40178726  0.15277877  0.14278839    -0.03100
C1816       C  0.37343971  0.11728581  0.13218238     0.02300
C1817       C  0.45292838  0.13387909  0.09731363     0.09200
N1818       N  0.51176566  0.20732799  0.12003710     0.65500
H1819       H  0.46985610  0.20833605  0.14682338     0.18500
N1820       N  0.32636572  0.08771836  0.13576756     0.76000
H1821       H  0.36869471  0.08443537  0.10947527     0.10000
C1822       C  0.48915560  0.12486010  0.09590356     0.03700
C1823       C  0.50138971  0.11632531  0.08063054    -0.05100
C1824       C  0.47660001  0.11388301  0.06668898    -0.23400
C1825       C  0.44085398  0.12361134  0.06812485     0.12900
C1826       C  0.42981519  0.13403482  0.08328622    -0.12600
N1827       N  0.51089337  0.11979505  0.10991333     0.64600
H1828       H  0.52810544  0.10775743  0.07990853     0.12400
N1829       N  0.41481130  0.12225313  0.05439688     0.61200
H1830       H  0.40206922  0.14106377  0.08418268     0.08600
O1831       O  0.31364264  0.04825254  0.14095332    -0.40200
O1832       O  0.29711359  0.09630806  0.13000686    -0.39400
O1833       O  0.52024995  0.23442685  0.10842946    -0.39400
O1834       O  0.54326537  0.21401082  0.12969046    -0.37100
O1835       O  0.37626470  0.08763857  0.05201087    -0.38000
O1836       O  0.42570280  0.15849761  0.04683523    -0.34200
O1837       O  0.48754566  0.08947216  0.12016425    -0.35600
O1838       O  0.55377682  0.13939265  0.11053322    -0.39900
C1839       C  0.31952327  0.00371193  0.24470102    -0.13600
C1840       C  0.29041904  0.01716554  0.23776339     0.16800
C1841       C  0.24601982  0.99949985  0.24383469     0.03100
C1842       C  0.23166404  0.96962815  0.25691158    -0.12100
C1843       C  0.26096769  0.95690931  0.26421966    -0.03100
C1844       C  0.30509167  0.97363599  0.25784197     0.02300
C1845       C  0.30686123  0.05013854  0.22432538     0.09200
N1846       N  0.21596420  0.01349527  0.23737405     0.65500
H1847       H  0.19784945  0.95769938  0.26176528     0.18500
N1848       N  0.33481489  0.95903934  0.26413801     0.76000
H1849       H  0.35349753  0.01657776  0.23986720     0.10000
C1850       C  0.33906903  0.09620832  0.22696863     0.03700
C1851       C  0.35425732  0.12672842  0.21400653    -0.05100
C1852       C  0.33609533  0.11249856  0.19842131    -0.23400
C1853       C  0.30308382  0.06619433  0.19592205     0.12900
C1854       C  0.28940552  0.03545064  0.20879804    -0.12600
N1855       N  0.35490292  0.11272514  0.24290746     0.64600
H1856       H  0.38001965  0.16175311  0.21618988     0.12400
N1857       N  0.28205741  0.05005928  0.18051326     0.61200
H1858       H  0.26418257  0.00005785  0.20675750     0.08600
O1859       O  0.36782885  0.98551003  0.27299017    -0.40200
O1860       O  0.33314812  0.92368399  0.25846759    -0.39400
O1861       O  0.18826669  0.99016340  0.22639204    -0.39400
O1862       O  0.21134251  0.04374120  0.24458926    -0.37100
O1863       O  0.28350409  0.01737950  0.17379531    -0.38000
O1864       O  0.25567895  0.06291739  0.17503666    -0.34200
O1865       O  0.39146816  0.11596506  0.24794055    -0.35600
O1866       O  0.33051515  0.12070033  0.25238593    -0.39900
C1867       C  0.45085913  0.36624920  0.34399713    -0.13600
C1868       C  0.45424630  0.33411949  0.33430390     0.16800
C1869       C  0.41587549  0.30241358  0.32543945     0.03100
C1870       C  0.37526256  0.30364645  0.32627932    -0.12100
C1871       C  0.37159666  0.33520901  0.33621414    -0.03100
C1872       C  0.41015455  0.36725296  0.34498858     0.02300
C1873       C  0.49730062  0.33281822  0.33464275     0.09200
N1874       N  0.41601613  0.26596509  0.31686845     0.65500
H1875       H  0.34587099  0.27864297  0.31957925     0.18500
N1876       N  0.40934493  0.40246548  0.35427881     0.76000
H1877       H  0.48026818  0.39101209  0.35075545     0.10000
C1878       C  0.52515045  0.34177563  0.32090811     0.03700
C1879       C  0.56633629  0.34179065  0.32224127    -0.05100
C1880       C  0.58122767  0.33424536  0.33711278    -0.23400
C1881       C  0.55274550  0.32441745  0.35080571     0.12900
C1882       C  0.51132645  0.32383134  0.34938603    -0.12600
N1883       N  0.51321882  0.35280324  0.30571047     0.64600
H1884       H  0.58676277  0.34753338  0.31158146     0.12400
N1885       N  0.56442762  0.31419529  0.36619477     0.61200
H1886       H  0.48996772  0.31664917  0.35996899     0.08600
O1887       O  0.40717019  0.43408558  0.34712763    -0.40200
O1888       O  0.41990268  0.40693546  0.36904489    -0.39400
O1889       O  0.40584421  0.22997084  0.32446764    -0.39400
O1890       O  0.41286970  0.26454720  0.30166769    -0.37100
O1891       O  0.59468530  0.34590249  0.37459204    -0.38000
O1892       O  0.53646345  0.27762785  0.37312496    -0.34200
O1893       O  0.51633871  0.39114996  0.30389404    -0.35600
O1894       O  0.50948905  0.32910846  0.29340889    -0.39900
C1895       C  0.91266590  0.36610357  0.31698140    -0.13600
C1896       C  0.88467326  0.34519438  0.33045513     0.16800
C1897       C  0.90087414  0.32923403  0.34303890     0.03100
C1898       C  0.94473045  0.33540964  0.34211162    -0.12100
C1899       C  0.97267528  0.35554390  0.32853826    -0.03100
C1900       C  0.95649122  0.37155433  0.31591952     0.02300
C1901       C  0.83911339  0.34123944  0.33138866     0.09200
N1902       N  0.87215665  0.30389928  0.35629315     0.65500
H1903       H  0.95583940  0.32159498  0.35170229     0.18500
N1904       N  0.98461213  0.39498072  0.30233465     0.76000
H1905       H  0.90070342  0.37904460  0.30738066     0.10000
C1906       C  0.82695300  0.35961807  0.34450021     0.03700
C1907       C  0.78311519  0.35335189  0.34532801    -0.05100
C1908       C  0.75155723  0.33192248  0.33281935    -0.23400
C1909       C  0.76390726  0.31418628  0.31941167     0.12900
C1910       C  0.80724309  0.31822615  0.31910506    -0.12600
N1911       N  0.85951085  0.38712026  0.35653635     0.64600
H1912       H  0.77422064  0.36739652  0.35555096     0.12400
N1913       N  0.73397550  0.29339795  0.30587331     0.61200
H1914       H  0.81672669  0.30434495  0.30897570     0.08600
O1915       O  0.02158982  0.43166393  0.30450981    -0.40200
O1916       O  0.96905245  0.38364906  0.28820161    -0.39400
O1917       O  0.83507371  0.26776941  0.35357657    -0.39400
O1918       O  0.88710995  0.31316869  0.37056717    -0.37100
O1919       O  0.70934772  0.30884511  0.30078893    -0.38000
O1920       O  0.73490943  0.26182908  0.29807586    -0.34200
O1921       O  0.89506616  0.42315397  0.35239756    -0.35600
O1922       O  0.84908755  0.38005659  0.37131361    -0.39900
C1923       C  0.99373572  0.43109949  0.44093983    -0.13600
C1924       C  0.02515377  0.41638159  0.44373551     0.16800
C1925       C  0.04308296  0.42076312  0.45939573     0.03100
C1926       C  0.03001245  0.43998401  0.47177211    -0.12100
C1927       C  0.99797220  0.45401325  0.46917088    -0.03100
C1928       C  0.97917818  0.44888089  0.45351788     0.02300
C1929       C  0.04215420  0.40052931  0.42996892     0.09200
N1930       N  0.07395796  0.40490698  0.46301863     0.65500
H1931       H  0.04475848  0.44352233  0.48365344     0.18500
N1932       N  0.94426776  0.45974160  0.45025386     0.76000
H1933       H  0.98016274  0.42844901  0.42891158     0.10000
C1934       C  0.01256943  0.36502884  0.41953686     0.03700
C1935       C  0.03012325  0.35379247  0.40600600    -0.05100
C1936       C  0.07712567  0.37708018  0.40265028    -0.23400
C1937       C  0.10667426  0.41218162  0.41332326     0.12900
C1938       C  0.08901364  0.42343999  0.42672849    -0.12600
N1939       N  0.96473031  0.33961684  0.42266017     0.64600
H1940       H  0.00675910  0.32675442  0.39806478     0.12400
N1941       N  0.15438907  0.43913279  0.41014598     0.61200
H1942       H  0.11207388  0.45158414  0.43435427     0.08600
O1943       O  0.94634551  0.48150032  0.43763739    -0.40200
O1944       O  0.90820331  0.44181074  0.45855870    -0.39400
O1945       O  0.11333157  0.43237853  0.46821328    -0.39400
O1946       O  0.05971882  0.36272737  0.46330477    -0.37100
O1947       O  0.16894950  0.47355257  0.40113325    -0.38000
O1948       O  0.18219748  0.43314243  0.41836828    -0.34200
O1949       O  0.93748008  0.34345097  0.41334314    -0.35600
O1950       O  0.94945795  0.30800685  0.43294207    -0.39900
C1951       C  0.42722685  0.46321425  0.44312181    -0.13600
C1952       C  0.38457475  0.46020945  0.44439051     0.16800
C1953       C  0.36883022  0.46460658  0.45973253     0.03100
C1954       C  0.39697857  0.47428604  0.47326907    -0.12100
C1955       C  0.43985747  0.47789483  0.47189559    -0.03100
C1956       C  0.45436078  0.47054285  0.45675282     0.02300
C1957       C  0.35637090  0.44941704  0.42959940     0.09200
N1958       N  0.32365715  0.45691329  0.46191035     0.65500
H1959       H  0.38527311  0.47878126  0.48495829     0.18500
N1960       N  0.49525804  0.46817255  0.45518170     0.76000
H1961       H  0.43875268  0.45818965  0.43147924     0.10000
C1962       C  0.33967149  0.47746892  0.42386037     0.03700
C1963       C  0.31313304  0.46511992  0.40974553    -0.05100
C1964       C  0.30470878  0.42636107  0.40087216    -0.23400
C1965       C  0.32146441  0.39849513  0.40669427     0.12900
C1966       C  0.34688039  0.41016415  0.42090669    -0.12600
N1967       N  0.35136195  0.51961793  0.43167812     0.64600
H1968       H  0.30042296  0.48671525  0.40538060     0.12400
N1969       N  0.31064641  0.35669026  0.39883861     0.61200
H1970       H  0.35886585  0.38799560  0.42532173     0.08600
O1971       O  0.51984293  0.48381599  0.44273935    -0.40200
O1972       O  0.50272495  0.44393062  0.46482187    -0.39400
O1973       O  0.29006431  0.41767627  0.45949738    -0.39400
O1974       O  0.31758532  0.48632612  0.46908161    -0.37100
O1975       O  0.34112504  0.35355972  0.39115018    -0.38000
O1976       O  0.27332976  0.32117345  0.40188325    -0.34200
O1977       O  0.39266036  0.54999080  0.43305971    -0.35600
O1978       O  0.32074368  0.52921025  0.43490711    -0.39900
C1979       C  0.98339573  0.25831707  0.24435933    -0.13600
C1980       C  0.97467443  0.21828915  0.23642378     0.16800
C1981       C  0.99198663  0.19161480  0.24313611     0.03100
C1982       C  0.01825214  0.20627759  0.25731866    -0.12100
C1983       C  0.02663645  0.24636113  0.26524129    -0.03100
C1984       C  0.00779367  0.27178230  0.25879339     0.02300
C1985       C  0.94804867  0.20603454  0.22115001     0.09200
N1986       N  0.98257738  0.14922770  0.23605638     0.65500
H1987       H  0.03231158  0.18628851  0.26212477     0.18500
N1988       N  0.01456652  0.31254389  0.26639466     0.76000
H1989       H  0.97182786  0.27995327  0.23917517     0.10000
C1990       C  0.90412584  0.20113437  0.22049510     0.03700
C1991       C  0.88010290  0.18952393  0.20593696    -0.05100
C1992       C  0.89906017  0.18313014  0.19182352    -0.23400
C1993       C  0.94391420  0.19089413  0.19215619     0.12900
C1994       C  0.96814045  0.20273748  0.20672960    -0.12600
N1995       N  0.88324143  0.20782965  0.23444093     0.64600
H1996       H  0.84614825  0.18502491  0.20567107     0.12400
N1997       N  0.96502577  0.18633064  0.17783955     0.61200
H1998       H  0.00290722  0.20957689  0.20674564     0.08600
O1999       O  0.98550127  0.31048483  0.27641507    -0.40200
O2000       O  0.04447870  0.35069523  0.26101314    -0.39400
O2001       O  0.00442740  0.14933301  0.22368429    -0.39400
O2002       O  0.96287274  0.11355927  0.24447846    -0.37100
O2003       O  0.99923769  0.22069903  0.17194002    -0.38000
O2004       O  0.94873550  0.14834787  0.17077894    -0.34200
O2005       O  0.88721762  0.24638199  0.23682919    -0.35600
O2006       O  0.85069027  0.17362163  0.24104676    -0.39900
C2007       C  0.35240815  0.25523536  0.22247569    -0.13600
C2008       C  0.30618506  0.23144651  0.22690818     0.16800
C2009       C  0.27615704  0.19183428  0.21811766     0.03100
C2010       C  0.29224151  0.17798474  0.20485770    -0.12100
C2011       C  0.33827103  0.20226596  0.20035770    -0.03100
C2012       C  0.36864465  0.24062179  0.20952174     0.02300
C2013       C  0.28966143  0.25015427  0.23999811     0.09200
N2014       N  0.22949792  0.16465448  0.22276725     0.65500
H2015       H  0.26872246  0.14801949  0.19806270     0.18500
N2016       N  0.41634145  0.26426344  0.20608561     0.76000
H2017       H  0.37605870  0.28575440  0.22896707     0.10000
C2018       C  0.31163831  0.26337159  0.25513557     0.03700
C2019       C  0.29735285  0.28395516  0.26666890    -0.05100
C2020       C  0.26016725  0.29056095  0.26380536    -0.23400
C2021       C  0.23813064  0.27725444  0.24866707     0.12900
C2022       C  0.25337135  0.25793934  0.23691017    -0.12600
N2023       N  0.34688421  0.25385283  0.25935636     0.64600
H2024       H  0.31411607  0.29256604  0.27832048     0.12400
N2025       N  0.20074375  0.28378282  0.24489618     0.61200
H2026       H  0.23695128  0.24940181  0.22520819     0.08600
O2027       O  0.43407479  0.30188672  0.19880583    -0.40200
O2028       O  0.44166982  0.25207866  0.21293996    -0.39400
O2029       O  0.19852197  0.16091241  0.21340335    -0.39400
O2030       O  0.21921283  0.13848553  0.23476703    -0.37100
O2031       O  0.20811679  0.32002503  0.23807460    -0.38000
O2032       O  0.16060481  0.25059537  0.24570480    -0.34200
O2033       O  0.38605617  0.28610870  0.26286252    -0.35600
O2034       O  0.33682057  0.21346347  0.26236400    -0.39900
loop_ 
_geom_bond_atom_site_label_1 
_geom_bond_atom_site_label_2 
_geom_bond_distance 
_geom_bond_site_symmetry_2 
_ccdc_geom_bond_type 
O1           Mg3   2.143       .  S
O1           Mg9   2.161       .  S
O1           C36   1.235       .  S
C2           O15   1.234       .  S
C2           O39   1.268       .  A
C2           H41   1.080       .  S
Mg3          O32   2.159       .  S
Mg3          O47   2.274       .  S
Mg3          O43   2.271       .  S
Mg3          O14   2.301       .  S
O4          Mg46   2.155       .  S
O4          Mg29   2.159       .  S
O4           C25   1.235       .  S
O5           C36   1.268       .  A
O5          Mg29   2.294       .  S
C6            O8   1.270       .  A
C6           O20   1.274       .  A
C6         C1964   1.478       .  S
O7           C35   1.270       .  A
O7           Mg9   2.298       .  S
O8          Mg40   2.258       .  S
Mg9          O15   2.153       .  S
Mg9          O23   2.294       .  S
Mg9          O11   2.294       .  S
C10          O48   1.271       .  A
C10          O16   1.272       .  A
C10        C1871   1.479       .  S
O11          C18   1.275       .  A
H12          C25   1.079       .  S
C13          O27   1.235       .  S
C13          O28   1.271       .  A
C13          H38   1.079       .  S
O14          C37   1.270       .  A
O15         Mg29   2.169       .  S
O16         Mg46   2.293       .  S
C17          O30   1.272       .  A
C17          O22   1.278       .  A
C17        C2020   1.494       .  S
C18          O45   1.275       .  A
C18        C1983   1.483       .  S
Mg19         O26   2.154       .  S
Mg19         O27   2.155       .  S
Mg19         O20   2.293       .  S
Mg19         O21   2.307       .  S
Mg19         O48   2.273       .  S
O21          C25   1.270       .  A
O22         Mg29   2.332       .  S
O23          C42   1.274       .  A
O24          C44   1.274       .  A
O24         Mg40   2.303       .  S
O26         Mg40   2.164       .  S
O26          C37   1.235       .  S
O27         Mg46   2.164       .  S
O28         Mg40   2.309       .  S
Mg29         O45   2.279       .  S
O30         Mg46   2.259       .  S
H31          C36   1.079       .  S
O32         Mg40   2.142       .  S
O32          C35   1.236       .  S
H33          C35   1.079       .  S
H34          C37   1.081       .  S
O39         Mg46   2.294       .  S
C42          O47   1.272       .  A
C42        C1899   1.485   1_455  S
O43          C44   1.271       .  A
C44        C1936   1.492       .  S
C49        C1852   1.494       .  S
C49          C50   1.421       .  A
C49          C54   1.410       .  A
C50        C2011   1.489       .  S
C50          C51   1.408       .  A
C51          H56   1.084       .  S
C51          C52   1.404       .  A
C52        C1787   1.489       .  S
C52          C53   1.414       .  A
C53        C1815   1.488       .  S
C53          C54   1.402       .  A
C54          H55   1.084       .  S
C57        C1759   1.495       .  S
C57          C58   1.414       .  A
C57          C62   1.404       .  A
C58        C1992   1.483       .  S
C58          C59   1.402       .  A
C59          H64   1.085       .  S
C59          C60   1.403       .  A
C60        C1703   1.489       .  S
C60          C61   1.422       .  A
C61        C1740   1.495       .  S
C61          C62   1.412       .  A
C62          H63   1.084       .  S
O65         Mg67   2.152       .  S
O65         Mg73   2.164       .  S
O65         C100   1.236       .  S
C66          O79   1.237       .  S
C66         O103   1.272       .  A
C66         H105   1.080       .  S
Mg67         O96   2.169       .  S
Mg67        O111   2.296       .  S
Mg67        O107   2.280       .  S
Mg67         O78   2.288       .  S
O68        Mg110   2.145       .  S
O68         Mg93   2.140       .  S
O68          C89   1.235       .  S
O69         C100   1.271       .  A
O69         Mg93   2.304       .  S
C70          O72   1.273       .  A
C70          O84   1.270       .  A
C70        C1675   1.483       .  S
O71          C99   1.270       .  A
O71         Mg73   2.297       .  S
O72        Mg104   2.293       .  S
Mg73         O79   2.167       .  S
Mg73         O87   2.306       .  S
Mg73         O75   2.310       .  S
C74         O112   1.269       .  A
C74          O80   1.276       .  A
C74        C1591   1.475   1_455  S
O75          C82   1.277       .  A
H76          C89   1.080       .  S
C77          O91   1.235       .  S
C77          O92   1.269       .  A
C77         H102   1.080       .  S
O78         C101   1.268       .  A
O79         Mg93   2.159       .  S
O80        Mg110   2.326       .  S
C81          O94   1.269       .  A
C81          O86   1.278       .  A
C81        C1619   1.490       .  S
C82         O109   1.271       .  A
C82        C1647   1.483       .  S
Mg83         O90   2.130       .  S
Mg83         O91   2.144       .  S
Mg83         O84   2.258       .  S
Mg83         O85   2.296       .  S
Mg83        O112   2.249       .  S
O85          C89   1.269       .  A
O86         Mg93   2.322       .  S
O87         C106   1.276       .  A
O88         C108   1.274       .  A
O88        Mg104   2.281       .  S
O90        Mg104   2.164       .  S
O90         C101   1.234       .  S
O91        Mg110   2.131       .  S
O92        Mg104   2.292       .  S
Mg93        O109   2.258       .  S
O94        Mg110   2.245       .  S
H95         C100   1.079       .  S
O96        Mg104   2.152       .  S
O96          C99   1.236       .  S
H97          C99   1.079       .  S
H98         C101   1.080       .  S
O103       Mg110   2.308       .  S
C106        O111   1.275       .  A
C106       C1563   1.489   1_565  S
O107        C108   1.274       .  A
C108       C1843   1.478       .  S
O113       Mg115   2.141       .  S
O113       Mg121   2.174       .  S
O113        C148   1.235       .  S
C114        O127   1.235       .  S
C114        O151   1.270       .  A
C114        H153   1.081       .  S
Mg115       O144   2.152       .  S
Mg115       O159   2.297       .  S
Mg115       O155   2.257       .  S
Mg115       O126   2.307       .  S
O116       Mg158   2.161       .  S
O116       Mg141   2.147       .  S
O116        C137   1.236       .  S
O117        C148   1.269       .  A
O117       Mg141   2.294       .  S
C118        O120   1.271       .  A
C118        O132   1.277       .  A
C118       C1768   1.482       .  S
O119        C147   1.268       .  A
O119       Mg121   2.292       .  S
O120       Mg152   2.255       .  S
Mg121       O127   2.149       .  S
Mg121       O135   2.268       .  S
Mg121       O123   2.289       .  S
C122        O160   1.274       .  A
C122        O128   1.277       .  A
C122       C1423   1.483   1_565  S
O123        C130   1.273       .  A
H124        C137   1.080       .  S
C125        O139   1.237       .  S
C125        O140   1.272       .  A
C125        H150   1.081       .  S
O126        C149   1.270       .  A
O127       Mg141   2.158       .  S
O128       Mg158   2.322       .  S
C129        O142   1.276       .  A
C129        O134   1.272       .  A
C129       C1479   1.485       .  S
C130        O157   1.270       .  A
C130       C1516   1.483       .  S
Mg131       O138   2.162       .  S
Mg131       O139   2.153       .  S
Mg131       O132   2.315       .  S
Mg131       O133   2.304       .  S
Mg131       O160   2.276       .  S
O133        C137   1.271       .  A
O134       Mg141   2.276       .  S
O135        C154   1.271       .  A
O136        C156   1.278       .  A
O136       Mg152   2.336       .  S
O138       Mg152   2.151       .  S
O138        C149   1.235       .  S
O139       Mg158   2.168       .  S
O140       Mg152   2.311       .  S
Mg141       O157   2.259       .  S
O142       Mg158   2.303       .  S
H143        C148   1.079       .  S
O144       Mg152   2.145       .  S
O144        C147   1.235       .  S
H145        C147   1.078       .  S
H146        C149   1.081       .  S
O151       Mg158   2.299       .  S
C154        O159   1.274       .  A
C154       C1451   1.480       .  S
O155        C156   1.271       .  A
C156       C1535   1.483       .  S
C161       C1544   1.485       .  S
C161        C162   1.417       .  A
C161        C166   1.395       .  A
C162       C1684   1.483       .  S
C162        C163   1.409       .  A
C163        H168   1.084       .  S
C163        C164   1.405       .  A
C164       C1367   1.491       .  S
C164        C165   1.416       .  A
C165       C1404   1.477       .  S
C165        C166   1.397       .  A
C166        H167   1.083       .  S
O169       Mg171   2.147   1_554  S
O169       Mg177   2.152       .  S
O169        C204   1.235       .  S
C170        O183   1.237   1_565  S
C170        O207   1.271       .  A
C170        H209   1.081       .  S
Mg171       O200   2.160   1_545  S
Mg171       O215   2.325   1_545  S
Mg171       O211   2.266   1_545  S
Mg171       O182   2.307       .  S
O172       Mg214   2.159       .  S
O172       Mg197   2.148       .  S
O172        C193   1.235       .  S
O173        C204   1.269       .  A
O173       Mg197   2.297       .  S
C174        O176   1.273       .  A
C174        O188   1.275       .  A
C174       C1348   1.484       .  S
O175        C203   1.270   1_554  A
O175       Mg177   2.305   1_565  S
O176       Mg208   2.276       .  S
Mg177       O183   2.158       .  S
Mg177       O191   2.279       .  S
Mg177       O179   2.327       .  S
C178        O216   1.274       .  A
C178        O184   1.275   1_556  A
C178       C1255   1.483       .  S
O179        C186   1.278       .  A
H180        C193   1.080       .  S
C181        O195   1.234       .  S
C181        O196   1.268       .  A
C181        H206   1.080       .  S
O182        C205   1.272       .  A
O183       Mg197   2.162       .  S
O184       Mg214   2.314       .  S
C185        O198   1.270       .  A
C185        O190   1.274       .  A
C185       C1731   1.476       .  S
C186        O213   1.272       .  A
C186       C1824   1.489       .  S
Mg187       O194   2.161       .  S
Mg187       O195   2.145   1_545  S
Mg187       O188   2.305   1_545  S
Mg187       O189   2.303       .  S
Mg187       O216   2.281       .  S
O189        C193   1.270   1_556  A
O190       Mg197   2.294       .  S
O191        C210   1.275   1_545  A
O192        C212   1.274       .  A
O192       Mg208   2.290       .  S
O194       Mg208   2.166   1_545  S
O194        C205   1.237       .  S
O195       Mg214   2.138   1_566  S
O196       Mg208   2.295       .  S
Mg197       O213   2.260       .  S
O198       Mg214   2.255       .  S
H199        C204   1.081   1_556  S
O200       Mg208   2.156       .  S
O200        C203   1.235       .  S
H201        C203   1.080       .  S
H202        C205   1.079       .  S
O207       Mg214   2.301   1_565  S
C210        O215   1.277   1_554  A
C210       C1283   1.490       .  S
O211        C212   1.271       .  A
C212       C1311   1.478       .  S
O217       Mg219   2.139   1_556  S
O217       Mg225   2.148       .  S
O217        C252   1.235       .  S
C218        O231   1.237       .  S
C218        O255   1.273       .  A
C218        H257   1.079       .  S
Mg219       O248   2.159       .  S
Mg219       O263   2.322       .  S
Mg219       O259   2.258       .  S
Mg219       O230   2.295       .  S
O220       Mg262   2.147       .  S
O220       Mg245   2.149       .  S
O220        C241   1.235       .  S
O221        C252   1.269       .  A
O221       Mg245   2.297       .  S
C222        O224   1.272       .  A
C222        O236   1.274       .  A
C222       C1796   1.486       .  S
O223        C251   1.267   1_556  A
O223       Mg225   2.292       .  S
O224       Mg256   2.276       .  S
Mg225       O231   2.162       .  S
Mg225       O239   2.277       .  S
Mg225       O227   2.278       .  S
C226        O264   1.270       .  A
C226        O232   1.277   1_554  A
C226       C1152   1.474       .  S
O227        C234   1.272       .  A
H228        C241   1.080       .  S
C229        O243   1.236       .  S
C229        O244   1.269       .  A
C229        H254   1.079   1_554  S
O230        C253   1.270       .  A
O231       Mg245   2.165       .  S
O232       Mg262   2.332       .  S
C233        O246   1.271       .  A
C233        O238   1.273       .  A
C233       C1227   1.481       .  S
C234        O261   1.270       .  A
C234       C1199   1.471       .  S
Mg235       O242   2.133       .  S
Mg235       O243   2.148       .  S
Mg235       O236   2.297       .  S
Mg235       O237   2.304       .  S
Mg235       O264   2.252       .  S
O237        C241   1.270   1_554  A
O238       Mg245   2.294       .  S
O239        C258   1.273       .  A
O240        C260   1.271       .  A
O240       Mg256   2.256       .  S
O242       Mg256   2.161       .  S
O242        C253   1.237       .  S
O243       Mg262   2.134   1_554  S
O244       Mg256   2.290       .  S
Mg245       O261   2.254       .  S
O246       Mg262   2.252       .  S
H247        C252   1.081   1_554  S
O248       Mg256   2.140       .  S
O248        C251   1.234       .  S
H249        C251   1.079       .  S
H250        C253   1.081       .  S
O255       Mg262   2.313       .  S
C258        O263   1.276   1_556  A
C258       C1171   1.477       .  S
O259        C260   1.271       .  A
C260       C1395   1.473       .  S
O265       Mg267   2.157   1_556  S
O265       Mg273   2.147       .  S
O265        C300   1.236       .  S
C266        O279   1.237   1_655  S
C266        O303   1.273       .  A
C266        H305   1.078       .  S
Mg267       O296   2.156   1_455  S
Mg267       O311   2.316       .  S
Mg267       O307   2.269       .  S
Mg267       O278   2.297       .  S
O268       Mg310   2.159   1_455  S
O268       Mg293   2.176       .  S
O268        C289   1.237       .  S
O269        C300   1.272       .  A
O269       Mg293   2.311       .  S
C270        O272   1.275       .  A
C270        O284   1.275       .  A
C270       C1376   1.491       .  S
O271        C299   1.271   1_556  A
O271       Mg273   2.301   1_655  S
O272       Mg304   2.283       .  S
Mg273       O279   2.164       .  S
Mg273       O287   2.269       .  S
Mg273       O275   2.302       .  S
C274        O312   1.270       .  A
C274        O280   1.279   1_554  A
C274       C1059   1.482       .  S
O275        C282   1.272       .  A
H276        C289   1.079       .  S
C277        O291   1.236       .  S
C277        O292   1.271       .  A
C277        H302   1.082   1_554  S
O278        C301   1.270       .  A
O279       Mg293   2.143       .  S
O280       Mg310   2.346   1_455  S
C281        O294   1.272       .  A
C281        O286   1.277       .  A
C281       C1096   1.493       .  S
C282        O309   1.275       .  A
C282       C1115   1.486       .  S
Mg283       O290   2.145       .  S
Mg283       O291   2.144   1_455  S
Mg283       O284   2.314   1_455  S
Mg283       O285   2.315       .  S
Mg283       O312   2.258       .  S
O285        C289   1.273   1_554  A
O286       Mg293   2.312       .  S
O287        C306   1.270       .  A
O288        C308   1.278       .  A
O288       Mg304   2.327       .  S
O290       Mg304   2.153   1_455  S
O290        C301   1.236       .  S
O291       Mg310   2.154   1_554  S
O292       Mg304   2.304       .  S
Mg293       O309   2.306       .  S
O294       Mg310   2.269   1_455  S
H295        C300   1.078   1_554  S
O296       Mg304   2.157       .  S
O296        C299   1.236       .  S
H297        C299   1.078       .  S
H298        C301   1.078       .  S
O303       Mg310   2.313       .  S
C306        O311   1.276   1_556  A
C306       C1031   1.479       .  S
O307        C308   1.274   1_455  A
C308       C1712   1.490       .  S
O313       Mg315   2.156       .  S
O313       Mg321   2.160       .  S
O313        C348   1.236       .  S
C314        O327   1.235       .  S
C314        O351   1.270       .  A
C314        H353   1.080       .  S
Mg315       O344   2.161       .  S
Mg315       O359   2.317       .  S
Mg315       O355   2.274       .  S
Mg315       O326   2.299       .  S
O316       Mg358   2.154       .  S
O316       Mg341   2.133       .  S
O316        C337   1.235       .  S
O317        C348   1.271       .  A
O317       Mg341   2.305       .  S
C318        O320   1.272       .  A
C318        O332   1.275       .  A
C318       C1003   1.479       .  S
O319        C347   1.269       .  A
O319       Mg321   2.299       .  S
O320       Mg352   2.274       .  S
Mg321       O327   2.159       .  S
Mg321       O335   2.277       .  S
Mg321       O323   2.313       .  S
C322        O360   1.273       .  A
C322        O328   1.272       .  A
C322        C863   1.471       .  S
O323        C330   1.275       .  A
H324        C337   1.078       .  S
C325        O339   1.234       .  S
C325        O340   1.268       .  A
C325        H350   1.080       .  S
O326        C349   1.270       .  A
O327       Mg341   2.153       .  S
O328       Mg358   2.273       .  S
C329        O342   1.272       .  A
C329        O334   1.276       .  A
C329        C947   1.495       .  S
C330        O357   1.270       .  A
C330        C919   1.476       .  S
Mg331       O338   2.151       .  S
Mg331       O339   2.175       .  S
Mg331       O332   2.297       .  S
Mg331       O333   2.292       .  S
Mg331       O360   2.280       .  S
O333        C337   1.269       .  A
O334       Mg341   2.312       .  S
O335        C354   1.274       .  A
O336        C356   1.274       .  A
O336       Mg352   2.295       .  S
O338       Mg352   2.170       .  S
O338        C349   1.235       .  S
O339       Mg358   2.144       .  S
O340       Mg352   2.290       .  S
Mg341       O357   2.239       .  S
O342       Mg358   2.276       .  S
H343        C348   1.079       .  S
O344       Mg352   2.152       .  S
O344        C347   1.235       .  S
H345        C347   1.080       .  S
H346        C349   1.081       .  S
O351       Mg358   2.300       .  S
C354        O359   1.276       .  A
C354        C891   1.494   1_545  S
O355        C356   1.272       .  A
C356        C975   1.470       .  S
C361       C1124   1.495       .  S
C361        C362   1.413       .  A
C361        C366   1.412       .  A
C362       C1236   1.480       .  S
C362        C363   1.397       .  A
C363        H368   1.084       .  S
C363        C364   1.400       .  A
C364        C956   1.486       .  S
C364        C365   1.420       .  A
C365        C844   1.495       .  S
C365        C366   1.416       .  A
C366        H367   1.083       .  S
C369       C1320   1.486       .  S
C369        C370   1.420       .  A
C369        C374   1.405       .  A
C370       C1087   1.486       .  S
C370        C371   1.408       .  A
C371        H376   1.085       .  S
C371        C372   1.401       .  A
C372        C807   1.487       .  S
C372        C373   1.412       .  A
C373        C928   1.480       .  S
C373        C374   1.399       .  A
C374        H375   1.085       .  S
O377       Mg379   2.179       .  S
O377       Mg385   2.155       .  S
O377        C412   1.236       .  S
C378        O391   1.235       .  S
C378        O415   1.270       .  A
C378        H417   1.080       .  S
Mg379       O408   2.167       .  S
Mg379       O423   2.319       .  S
Mg379       O419   2.294       .  S
Mg379       O390   2.293       .  S
O380       Mg422   2.167       .  S
O380       Mg405   2.169       .  S
O380        C401   1.236       .  S
O381        C412   1.272       .  A
O381       Mg405   2.312       .  S
C382        O384   1.276       .  A
C382        O396   1.275       .  A
C382        C760   1.492       .  S
O383        C411   1.271       .  A
O383       Mg385   2.305       .  S
O384       Mg416   2.310       .  S
Mg385       O391   2.153       .  S
Mg385       O399   2.261       .  S
Mg385       O387   2.307       .  S
C386        O424   1.270   1_565  A
C386        O392   1.276   1_565  A
C386        C667   1.488       .  S
O387        C394   1.276       .  A
H388        C401   1.081       .  S
C389        O403   1.235       .  S
C389        O404   1.268       .  A
C389        H414   1.078       .  S
O390        C413   1.268       .  A
O391       Mg405   2.161       .  S
O392       Mg422   2.307       .  S
C393        O406   1.270       .  A
C393        O398   1.279       .  A
C393        C723   1.493       .  S
C394        O421   1.277       .  A
C394        C835   1.500       .  S
Mg395       O402   2.135       .  S
Mg395       O403   2.160       .  S
Mg395       O396   2.296       .  S
Mg395       O397   2.303       .  S
Mg395       O424   2.261       .  S
O397        C401   1.271       .  A
O398       Mg405   2.330       .  S
O399        C418   1.271       .  A
O400        C420   1.276       .  A
O400       Mg416   2.290       .  S
O402       Mg416   2.165       .  S
O402        C413   1.235       .  S
O403       Mg422   2.142       .  S
O404       Mg416   2.289       .  S
Mg405       O421   2.313       .  S
O406       Mg422   2.248       .  S
H407        C412   1.080       .  S
O408       Mg416   2.163       .  S
O408        C411   1.236       .  S
H409        C411   1.080       .  S
H410        C413   1.081       .  S
O415       Mg422   2.301       .  S
C418        O423   1.276       .  A
C418        C704   1.479   1_655  S
O419        C420   1.275       .  A
C420        C779   1.488       .  S
O425       Mg427   2.152       .  S
O425       Mg433   2.154       .  S
O425        C460   1.236       .  S
C426        O439   1.235       .  S
C426        O463   1.270       .  A
C426        H465   1.081       .  S
Mg427       O456   2.166       .  S
Mg427       O471   2.327       .  S
Mg427       O467   2.269       .  S
Mg427       O438   2.301       .  S
O428       Mg470   2.145       .  S
O428       Mg453   2.144       .  S
O428        C449   1.234       .  S
O429        C460   1.271       .  A
O429       Mg453   2.305       .  S
C430        O432   1.274       .  A
C430        O444   1.274       .  A
C430        C816   1.489       .  S
O431        C459   1.270       .  A
O431       Mg433   2.300       .  S
O432       Mg464   2.281       .  S
Mg433       O439   2.152       .  S
Mg433       O447   2.258       .  S
Mg433       O435   2.281       .  S
C434        O472   1.273       .  A
C434        O440   1.271       .  A
C434        C527   1.480   1_655  S
O435        C442   1.271       .  A
H436        C449   1.078       .  S
C437        O451   1.235       .  S
C437        O452   1.270       .  A
C437        H462   1.080       .  S
O438        C461   1.269       .  A
O439       Mg453   2.153       .  S
O440       Mg470   2.273       .  S
C441        O454   1.269       .  A
C441        O446   1.274       .  A
C441        C639   1.476       .  S
C442        O469   1.270       .  A
C442        C611   1.476       .  S
Mg443       O450   2.154       .  S
Mg443       O451   2.169       .  S
Mg443       O444   2.291       .  S
Mg443       O445   2.296       .  S
Mg443       O472   2.283       .  S
O445        C449   1.269       .  A
O446       Mg453   2.308       .  S
O447        C466   1.270       .  A
O448        C468   1.276       .  A
O448       Mg464   2.299       .  S
O450       Mg464   2.159       .  S
O450        C461   1.234       .  S
O451       Mg470   2.146       .  S
O452       Mg464   2.300       .  S
Mg453       O469   2.257       .  S
O454       Mg470   2.254       .  S
H455        C460   1.080       .  S
O456       Mg464   2.157       .  S
O456        C459   1.235       .  S
H457        C459   1.079       .  S
H458        C461   1.080       .  S
O463       Mg470   2.305       .  S
C466        O471   1.277       .  A
C466        C555   1.490       .  S
O467        C468   1.273       .  A
C468        C583   1.484       .  S
C473       C1339   1.484       .  S
C473        C474   1.410       .  A
C473        C478   1.399       .  A
C474       C1208   1.480       .  S
C474        C475   1.399       .  A
C475        H480   1.083       .  S
C475        C476   1.407       .  A
C476        C592   1.487       .  S
C476        C477   1.422       .  A
C477        C732   1.489       .  S
C477        C478   1.406       .  A
C478        H479   1.084       .  S
C481       C1927   1.496       .  S
C481        C482   1.419       .  A
C481        C486   1.411       .  A
C482       C1628   1.481   1_655  S
C482        C483   1.401       .  A
C483        H488   1.086       .  S
C483        C484   1.398       .  A
C484        C648   1.481       .  S
C484        C485   1.416       .  A
C485        C788   1.494       .  S
C485        C486   1.407       .  A
C486        H487   1.083       .  S
C489       C1955   1.482       .  S
C489        C490   1.414       .  A
C489        C494   1.400       .  A
C490       C1507   1.482       .  S
C490        C491   1.403       .  A
C491        H496   1.084       .  S
C491        C492   1.406       .  A
C492        C620   1.489       .  S
C492        C493   1.418       .  A
C493       C1012   1.480       .  S
C493        C494   1.401       .  A
C494        H495   1.084       .  S
C497       C1656   1.492       .  S
C497        C498   1.417       .  A
C497        C502   1.405       .  A
C498       C1488   1.484       .  S
C498        C499   1.405   1_565  A
C499        H504   1.083       .  S
C499        C500   1.407       .  A
C500        C751   1.495       .  S
C500        C501   1.419       .  A
C501        C984   1.484       .  S
C501        C502   1.403   1_545  A
C502        H503   1.084       .  S
C505       C1068   1.502       .  S
C505        C506   1.421   1_565  A
C505        C510   1.425   1_454  A
C506       C1292   1.496       .  S
C506        C507   1.419       .  A
C507       C1143   1.498       .  S
C507        C508   1.423   1_455  A
C508       C1040   1.501   1_554  S
C508        C509   1.428   1_554  A
C509       C1264   1.503       .  S
C509        C510   1.428   1_545  A
C510       C1180   1.500       .  S
C511       C1908   1.497       .  S
C511        C512   1.422       .  A
C511        C516   1.426       .  A
C512       C1432   1.498       .  S
C512        C513   1.422       .  A
C513       C1572   1.501       .  S
C513        C514   1.420       .  A
C514       C1880   1.498       .  S
C514        C515   1.425       .  A
C515       C1460   1.497       .  S
C515        C516   1.422       .  A
C516       C1600   1.506       .  S
C517        C564   1.501       .  S
C517        C518   1.434       .  A
C517        C522   1.424       .  A
C518        C676   1.500       .  S
C518        C519   1.428       .  A
C519        C900   1.507       .  S
C519        C520   1.421       .  A
C520        C536   1.495       .  S
C520        C521   1.417       .  A
C521        C695   1.502       .  S
C521        C522   1.418       .  A
C522        C872   1.499       .  S
C523        H533   1.082       .  S
C523        C524   1.402       .  A
C523        C528   1.395       .  A
C524        C529   1.489       .  S
C524        C525   1.416       .  A
C525        C526   1.404       .  A
C525        N530   1.429       .  S
C526        H531   1.083       .  S
C526        C527   1.402       .  A
C527        C528   1.414       .  A
C528        N532   1.430       .  S
C529        C534   1.411       .  A
C529        C538   1.406       .  A
N530        O545   1.261       .  A
N530        O546   1.262       .  A
N532        O543   1.262       .  A
N532        O544   1.262       .  A
C534        C535   1.393       .  A
C534        N539   1.430       .  S
C535        H540   1.074       .  S
C535        C536   1.401       .  A
C536        C537   1.414       .  A
C537        C538   1.408       .  A
C537        N541   1.436       .  S
C538        H542   1.080       .  S
N539        O549   1.262       .  A
N539        O550   1.261       .  A
N541        O547   1.262       .  A
N541        O548   1.263       .  A
C551        H561   1.084       .  S
C551        C552   1.403       .  A
C551        C556   1.402       .  A
C552        C557   1.486       .  S
C552        C553   1.409       .  A
C553        C554   1.403       .  A
C553        N558   1.430       .  S
C554        H559   1.084       .  S
C554        C555   1.410       .  A
C555        C556   1.412       .  A
C556        N560   1.428       .  S
C557        C562   1.408       .  A
C557        C566   1.401       .  A
N558        O573   1.262       .  A
N558        O574   1.262       .  A
N560        O571   1.262       .  A
N560        O572   1.261       .  A
C562        C563   1.400       .  A
C562        N567   1.429       .  S
C563        H568   1.083       .  S
C563        C564   1.406       .  A
C564        C565   1.420       .  A
C565        C566   1.407       .  A
C565        N569   1.438       .  S
C566        H570   1.083       .  S
N567        O577   1.262       .  A
N567        O578   1.262       .  A
N569        O575   1.262       .  A
N569        O576   1.263       .  A
C579        H589   1.083       .  S
C579        C580   1.404       .  A
C579        C584   1.404       .  A
C580        C585   1.483       .  S
C580        C581   1.408       .  A
C581        C582   1.397       .  A
C581        N586   1.430       .  S
C582        H587   1.084       .  S
C582        C583   1.407       .  A
C583        C584   1.413       .  A
C584        N588   1.429       .  S
C585        C590   1.409       .  A
C585        C594   1.402       .  A
N586        O601   1.262       .  A
N586        O602   1.262       .  A
N588        O599   1.262       .  A
N588        O600   1.262       .  A
C590        C591   1.401       .  A
C590        N595   1.428       .  S
C591        H596   1.083       .  S
C591        C592   1.405       .  A
C592        C593   1.413       .  A
C593        C594   1.398       .  A
C593        N597   1.430       .  S
C594        H598   1.084       .  S
N595        O605   1.262       .  A
N595        O606   1.262       .  A
N597        O603   1.261       .  A
N597        O604   1.262       .  A
C607        H617   1.084       .  S
C607        C608   1.400       .  A
C607        C612   1.398       .  A
C608        C613   1.474       .  S
C608        C609   1.408       .  A
C609        C610   1.400       .  A
C609        N614   1.432       .  S
C610        H615   1.084       .  S
C610        C611   1.405       .  A
C611        C612   1.413       .  A
C612        N616   1.430       .  S
C613        C618   1.407       .  A
C613        C622   1.397       .  A
N614        O629   1.262       .  A
N614        O630   1.262       .  A
N616        O627   1.262       .  A
N616        O628   1.262       .  A
C618        C619   1.401       .  A
C618        N623   1.430       .  S
C619        H624   1.084       .  S
C619        C620   1.406       .  A
C620        C621   1.417       .  A
C621        C622   1.401       .  A
C621        N625   1.436       .  S
C622        H626   1.084       .  S
N623        O633   1.262       .  A
N623        O634   1.261       .  A
N625        O631   1.262       .  A
N625        O632   1.263       .  A
C635        H645   1.084       .  S
C635        C636   1.400       .  A
C635        C640   1.400       .  A
C636        C641   1.480       .  S
C636        C637   1.410       .  A
C637        C638   1.403       .  A
C637        N642   1.430       .  S
C638        H643   1.084       .  S
C638        C639   1.402       .  A
C639        C640   1.415       .  A
C640        N644   1.433       .  S
C641        C646   1.407   1_655  A
C641        C650   1.405       .  A
N642        O657   1.262       .  A
N642        O658   1.262       .  A
N644        O655   1.262       .  A
N644        O656   1.262       .  A
C646        C647   1.400       .  A
C646        N651   1.428       .  S
C647        H652   1.084       .  S
C647        C648   1.404   1_455  A
C648        C649   1.407       .  A
C649        C650   1.402       .  A
C649        N653   1.428       .  S
C650        H654   1.084       .  S
N651        O661   1.262       .  A
N651        O662   1.262       .  A
N653        O659   1.262       .  A
N653        O660   1.262       .  A
C663        H673   1.083       .  S
C663        C664   1.403       .  A
C663        C668   1.404       .  A
C664        C669   1.486       .  S
C664        C665   1.410       .  A
C665        C666   1.399       .  A
C665        N670   1.429       .  S
C666        H671   1.083       .  S
C666        C667   1.406       .  A
C667        C668   1.415       .  A
C668        N672   1.429       .  S
C669        C674   1.408       .  A
C669        C678   1.402       .  A
N670        O685   1.262       .  A
N670        O686   1.262       .  A
N672        O683   1.262       .  A
N672        O684   1.262       .  A
C674        C675   1.400       .  A
C674        N679   1.429       .  S
C675        H680   1.083       .  S
C675        C676   1.406       .  A
C676        C677   1.420       .  A
C677        C678   1.404       .  A
C677        N681   1.437       .  S
C678        H682   1.083       .  S
N679        O689   1.262       .  A
N679        O690   1.262       .  A
N681        O687   1.263       .  A
N681        O688   1.262       .  A
C691        H701   1.084       .  S
C691        C692   1.401       .  A
C691        C696   1.408       .  A
C692        C697   1.485       .  S
C692        C693   1.408       .  A
C693        C694   1.400       .  A
C693        N698   1.431       .  S
C694        H699   1.083       .  S
C694        C695   1.405       .  A
C695        C696   1.420       .  A
C696        N700   1.440       .  S
C697        C702   1.412       .  A
C697        C706   1.401       .  A
N698        O713   1.262       .  A
N698        O714   1.262       .  A
N700        O711   1.263       .  A
N700        O712   1.261       .  A
C702        C703   1.405       .  A
C702        N707   1.429       .  S
C703        H708   1.084   1_455  S
C703        C704   1.403       .  A
C704        C705   1.413       .  A
C705        C706   1.399       .  A
C705        N709   1.430       .  S
C706        H710   1.084       .  S
N707        O717   1.261       .  A
N707        O718   1.262       .  A
N709        O715   1.262       .  A
N709        O716   1.262       .  A
C719        H729   1.082       .  S
C719        C720   1.402       .  A
C719        C724   1.400       .  A
C720        C725   1.492       .  S
C720        C721   1.413   1_565  A
C721        C722   1.403       .  A
C721        N726   1.429       .  S
C722        H727   1.083       .  S
C722        C723   1.407       .  A
C723        C724   1.419   1_545  A
C724        N728   1.430       .  S
C725        C730   1.413       .  A
C725        C734   1.406       .  A
N726        O741   1.262       .  A
N726        O742   1.262       .  A
N728        O739   1.262       .  A
N728        O740   1.262       .  A
C730        C731   1.398       .  A
C730        N735   1.429       .  S
C731        H736   1.084       .  S
C731        C732   1.403       .  A
C732        C733   1.413       .  A
C733        C734   1.405       .  A
C733        N737   1.431       .  S
C734        H738   1.082       .  S
N735        O745   1.262       .  A
N735        O746   1.261       .  A
N737        O743   1.262       .  A
N737        O744   1.262       .  A
C747        H757   1.083       .  S
C747        C748   1.404       .  A
C747        C752   1.404       .  A
C748        C753   1.493       .  S
C748        C749   1.414       .  A
C749        C750   1.404       .  A
C749        N754   1.430   1_545  S
C750        H755   1.083   1_545  S
C750        C751   1.404       .  A
C751        C752   1.413       .  A
C752        N756   1.429       .  S
C753        C758   1.412       .  A
C753        C762   1.407       .  A
N754        O769   1.261   1_565  A
N754        O770   1.262       .  A
N756        O767   1.262       .  A
N756        O768   1.261       .  A
C758        C759   1.403       .  A
C758        N763   1.433       .  S
C759        H764   1.084       .  S
C759        C760   1.407       .  A
C760        C761   1.412       .  A
C761        C762   1.408       .  A
C761        N765   1.428       .  S
C762        H766   1.084       .  S
N763        O773   1.262       .  A
N763        O774   1.262   1_545  A
N765        O771   1.262       .  A
N765        O772   1.262       .  A
C775        H785   1.083       .  S
C775        C776   1.407       .  A
C775        C780   1.406       .  A
C776        C781   1.490       .  S
C776        C777   1.410       .  A
C777        C778   1.398       .  A
C777        N782   1.431       .  S
C778        H783   1.084       .  S
C778        C779   1.407       .  A
C779        C780   1.412       .  A
C780        N784   1.428       .  S
C781        C786   1.410       .  A
C781        C790   1.405       .  A
N782        O797   1.262       .  A
N782        O798   1.262       .  A
N784        O795   1.262   1_655  A
N784        O796   1.262       .  A
C786        C787   1.400       .  A
C786        N791   1.429       .  S
C787        H792   1.080   1_655  S
C787        C788   1.405       .  A
C788        C789   1.414       .  A
C789        C790   1.402       .  A
C789        N793   1.430       .  S
C790        H794   1.083       .  S
N791        O801   1.262   1_655  A
N791        O802   1.262       .  A
N793        O799   1.262       .  A
N793        O800   1.261       .  A
C803        H813   1.083       .  S
C803        C804   1.404       .  A
C803        C808   1.402       .  A
C804        C809   1.490       .  S
C804        C805   1.414       .  A
C805        C806   1.403       .  A
C805        N810   1.432   1_455  S
C806        H811   1.084       .  S
C806        C807   1.402       .  A
C807        C808   1.413       .  A
C808        N812   1.436       .  S
C809        C814   1.414       .  A
C809        C818   1.401       .  A
N810        O825   1.262       .  A
N810        O826   1.262       .  A
N812        O823   1.263       .  A
N812        O824   1.262       .  A
C814        C815   1.406   1_455  A
C814        N819   1.431       .  S
C815        H820   1.083       .  S
C815        C816   1.406       .  A
C816        C817   1.417       .  A
C817        C818   1.397   1_655  A
C817        N821   1.429       .  S
C818        H822   1.084       .  S
N819        O829   1.262       .  A
N819        O830   1.262   1_455  A
N821        O827   1.262   1_655  A
N821        O828   1.262       .  A
C831        H841   1.083       .  S
C831        C832   1.409       .  A
C831        C836   1.409   1_455  A
C832        C837   1.503       .  S
C832        C833   1.413       .  A
C833        C834   1.404       .  A
C833        N838   1.431       .  S
C834        H839   1.083   1_455  S
C834        C835   1.409   1_455  A
C835        C836   1.413       .  A
C836        N840   1.428       .  S
C837        C842   1.414       .  A
C837        C846   1.408       .  A
N838        O853   1.262       .  A
N838        O854   1.262       .  A
N840        O851   1.262       .  A
N840        O852   1.262       .  A
C842        C843   1.404       .  A
C842        N847   1.429       .  S
C843        H848   1.083       .  S
C843        C844   1.402       .  A
C844        C845   1.413       .  A
C845        C846   1.408       .  A
C845        N849   1.432       .  S
C846        H850   1.082       .  S
N847        O857   1.262   1_455  A
N847        O858   1.262   1_455  A
N849        O855   1.262       .  A
N849        O856   1.262       .  A
C859        H869   1.084       .  S
C859        C860   1.398       .  A
C859        C864   1.393       .  A
C860        C865   1.475       .  S
C860        C861   1.410       .  A
C861        C862   1.405       .  A
C861        N866   1.428       .  S
C862        H867   1.083       .  S
C862        C863   1.403       .  A
C863        C864   1.411       .  A
C864        N868   1.430       .  S
C865        C870   1.406       .  A
C865        C874   1.398       .  A
N866        O881   1.262       .  A
N866        O882   1.262       .  A
N868        O879   1.262       .  A
N868        O880   1.261       .  A
C870        C871   1.399       .  A
C870        N875   1.431       .  S
C871        H876   1.084       .  S
C871        C872   1.407       .  A
C872        C873   1.418       .  A
C873        C874   1.401       .  A
C873        N877   1.429       .  S
C874        H878   1.084       .  S
N875        O885   1.262       .  A
N875        O886   1.262       .  A
N877        O883   1.262       .  A
N877        O884   1.260       .  A
C887        H897   1.083       .  S
C887        C888   1.404       .  A
C887        C892   1.404       .  A
C888        C893   1.494       .  S
C888        C889   1.412       .  A
C889        C890   1.403       .  A
C889        N894   1.430       .  S
C890        H895   1.083       .  S
C890        C891   1.408       .  A
C891        C892   1.416       .  A
C892        N896   1.429       .  S
C893        C898   1.410       .  A
C893        C902   1.403       .  A
N894        O909   1.262       .  A
N894        O910   1.262       .  A
N896        O907   1.262       .  A
N896        O908   1.262   1_565  A
C898        C899   1.400       .  A
C898        N903   1.429       .  S
C899        H904   1.083       .  S
C899        C900   1.406       .  A
C900        C901   1.419       .  A
C901        C902   1.406       .  A
C901        N905   1.431       .  S
C902        H906   1.083       .  S
N903        O913   1.262       .  A
N903        O914   1.262       .  A
N905        O911   1.262       .  A
N905        O912   1.260       .  A
C915        H925   1.084       .  S
C915        C916   1.395   1_545  A
C915        C920   1.394       .  A
C916        C921   1.470       .  S
C916        C917   1.408       .  A
C917        C918   1.403       .  A
C917        N922   1.430       .  S
C918        H923   1.083       .  S
C918        C919   1.405   1_565  A
C919        C920   1.414       .  A
C920        N924   1.428       .  S
C921        C926   1.406       .  A
C921        C930   1.399       .  A
N922        O937   1.262       .  A
N922        O938   1.262       .  A
N924        O935   1.262       .  A
N924        O936   1.261       .  A
C926        C927   1.398       .  A
C926        N931   1.429       .  S
C927        H932   1.084       .  S
C927        C928   1.402       .  A
C928        C929   1.413       .  A
C929        C930   1.400       .  A
C929        N933   1.433       .  S
C930        H934   1.084       .  S
N931        O941   1.262       .  A
N931        O942   1.262       .  A
N933        O939   1.262       .  A
N933        O940   1.262       .  A
C943        H953   1.083       .  S
C943        C944   1.402       .  A
C943        C948   1.402       .  A
C944        C949   1.488       .  S
C944        C945   1.409       .  A
C945        C946   1.403       .  A
C945        N950   1.429       .  S
C946        H951   1.078       .  S
C946        C947   1.408       .  A
C947        C948   1.417       .  A
C948        N952   1.428       .  S
C949        C954   1.409       .  A
C949        C958   1.406       .  A
N950        O965   1.262       .  A
N950        O966   1.262       .  A
N952        O963   1.262       .  A
N952        O964   1.261       .  A
C954        C955   1.398       .  A
C954        N959   1.429       .  S
C955        H960   1.084       .  S
C955        C956   1.403       .  A
C956        C957   1.412       .  A
C957        C958   1.406       .  A
C957        N961   1.432       .  S
C958        H962   1.082       .  S
N959        O969   1.262       .  A
N959        O970   1.262       .  A
N961        O967   1.262       .  A
N961        O968   1.262       .  A
C971        H981   1.083       .  S
C971        C972   1.409       .  A
C971        C976   1.408       .  A
C972        C977   1.488       .  S
C972        C973   1.410       .  A
C973        C974   1.394       .  A
C973        N978   1.429       .  S
C974        H979   1.085       .  S
C974        C975   1.399       .  A
C975        C976   1.407       .  A
C976        N980   1.429       .  S
C977        C982   1.411   1_545  A
C977        C986   1.404       .  A
N978        O993   1.261       .  A
N978        O994   1.262       .  A
N980        O991   1.262   1_545  A
N980        O992   1.262       .  A
C982        C983   1.404       .  A
C982        N987   1.430       .  S
C983        H988   1.084       .  S
C983        C984   1.404   1_565  A
C984        C985   1.409       .  A
C985        C986   1.400       .  A
C985        N989   1.432       .  S
C986        H990   1.083       .  S
N987        O997   1.262       .  A
N987        O998   1.262       .  A
N989        O995   1.262       .  A
N989        O996   1.262       .  A
C999       H1009   1.084       .  S
C999       C1000   1.401       .  A
C999       C1004   1.398       .  A
C1000      C1005   1.485       .  S
C1000      C1001   1.414       .  A
C1001      C1002   1.406       .  A
C1001      N1006   1.432       .  S
C1002      H1007   1.084       .  S
C1002      C1003   1.403       .  A
C1003      C1004   1.412       .  A
C1004      N1008   1.430       .  S
C1005      C1010   1.413       .  A
C1005      C1014   1.405       .  A
N1006      O1021   1.262       .  A
N1006      O1022   1.262       .  A
N1008      O1019   1.262       .  A
N1008      O1020   1.262       .  A
C1010      C1011   1.401       .  A
C1010      N1015   1.431       .  S
C1011      H1016   1.084       .  S
C1011      C1012   1.401       .  A
C1012      C1013   1.406       .  A
C1013      C1014   1.400       .  A
C1013      N1017   1.429       .  S
C1014      H1018   1.084       .  S
N1015      O1025   1.262       .  A
N1015      O1026   1.262       .  A
N1017      O1023   1.262       .  A
N1017      O1024   1.261       .  A
C1027      H1037   1.083       .  S
C1027      C1028   1.406   1_455  A
C1027      C1032   1.404       .  A
C1028      C1033   1.494       .  S
C1028      C1029   1.414   1_556  A
C1029      C1030   1.401       .  A
C1029      N1034   1.429       .  S
C1030      H1035   1.084       .  S
C1030      C1031   1.400   1_654  A
C1031      C1032   1.412       .  A
C1032      N1036   1.430       .  S
C1033      C1038   1.411   1_655  A
C1033      C1042   1.404   1_556  A
N1034      O1049   1.262       .  A
N1034      O1050   1.261       .  A
N1036      O1047   1.262       .  A
N1036      O1048   1.262       .  A
C1038      C1039   1.402       .  A
C1038      N1043   1.429       .  S
C1039      H1044   1.080       .  S
C1039      C1040   1.403   1_455  A
C1040      C1041   1.416   1_556  A
C1041      C1042   1.403       .  A
C1041      N1045   1.429       .  S
C1042      H1046   1.083       .  S
N1043      O1053   1.262       .  A
N1043      O1054   1.262   1_455  A
N1045      O1051   1.262       .  A
N1045      O1052   1.260   1_655  A
C1055      H1065   1.084   1_554  S
C1055      C1056   1.406       .  A
C1055      C1060   1.405       .  A
C1056      C1061   1.487       .  S
C1056      C1057   1.410   1_455  A
C1057      C1058   1.402       .  A
C1057      N1062   1.430       .  S
C1058      H1063   1.082       .  S
C1058      C1059   1.404   1_655  A
C1059      C1060   1.408       .  A
C1060      N1064   1.428   1_554  S
C1061      C1066   1.409       .  A
C1061      C1070   1.401   1_554  A
N1062      O1077   1.262       .  A
N1062      O1078   1.262       .  A
N1064      O1075   1.262   1_556  A
N1064      O1076   1.261       .  A
C1066      C1067   1.402       .  A
C1066      N1071   1.429       .  S
C1067      H1072   1.078       .  S
C1067      C1068   1.406       .  A
C1068      C1069   1.415   1_554  A
C1069      C1070   1.404       .  A
C1069      N1073   1.431   1_455  S
C1070      H1074   1.083       .  S
N1071      O1081   1.262       .  A
N1071      O1082   1.262   1_455  A
N1073      O1079   1.260   1_655  A
N1073      O1080   1.262       .  A
C1083      H1093   1.083       .  S
C1083      C1084   1.406       .  A
C1083      C1088   1.406       .  A
C1084      C1089   1.488       .  S
C1084      C1085   1.410       .  A
C1085      C1086   1.398       .  A
C1085      N1090   1.429       .  S
C1086      H1091   1.084       .  S
C1086      C1087   1.403       .  A
C1087      C1088   1.413       .  A
C1088      N1092   1.431       .  S
C1089      C1094   1.410       .  A
C1089      C1098   1.401       .  A
N1090      O1105   1.262       .  A
N1090      O1106   1.262   1_455  A
N1092      O1103   1.262       .  A
N1092      O1104   1.262       .  A
C1094      C1095   1.402       .  A
C1094      N1099   1.429       .  S
C1095      H1100   1.083       .  S
C1095      C1096   1.408       .  A
C1096      C1097   1.417       .  A
C1097      C1098   1.400       .  A
C1097      N1101   1.428       .  S
C1098      H1102   1.083       .  S
N1099      O1109   1.262       .  A
N1099      O1110   1.262       .  A
N1101      O1107   1.261       .  A
N1101      O1108   1.262   1_455  A
C1111      H1121   1.084       .  S
C1111      C1112   1.406       .  A
C1111      C1116   1.403       .  A
C1112      C1117   1.499       .  S
C1112      C1113   1.416       .  A
C1113      C1114   1.408       .  A
C1113      N1118   1.430       .  S
C1114      H1119   1.084       .  S
C1114      C1115   1.404       .  A
C1115      C1116   1.410       .  A
C1116      N1120   1.428       .  S
C1117      C1122   1.416       .  A
C1117      C1126   1.405       .  A
N1118      O1133   1.261       .  A
N1118      O1134   1.262       .  A
N1120      O1131   1.262       .  A
N1120      O1132   1.261       .  A
C1122      C1123   1.409       .  A
C1122      N1127   1.430       .  S
C1123      H1128   1.084       .  S
C1123      C1124   1.405       .  A
C1124      C1125   1.411       .  A
C1125      C1126   1.404       .  A
C1125      N1129   1.429       .  S
C1126      H1130   1.084       .  S
N1127      O1137   1.262       .  A
N1127      O1138   1.262       .  A
N1129      O1135   1.261       .  A
N1129      O1136   1.262       .  A
C1139      H1149   1.083       .  S
C1139      C1140   1.399   1_556  A
C1139      C1144   1.403       .  A
C1140      C1145   1.480       .  S
C1140      C1141   1.406       .  A
C1141      C1142   1.401       .  A
C1141      N1146   1.429       .  S
C1142      H1147   1.076       .  S
C1142      C1143   1.404       .  A
C1143      C1144   1.416   1_554  A
C1144      N1148   1.429       .  S
C1145      C1150   1.408       .  A
C1145      C1154   1.403       .  A
N1146      O1161   1.262       .  A
N1146      O1162   1.261       .  A
N1148      O1159   1.260       .  A
N1148      O1160   1.261       .  A
C1150      C1151   1.398       .  A
C1150      N1155   1.429       .  S
C1151      H1156   1.084       .  S
C1151      C1152   1.402       .  A
C1152      C1153   1.409       .  A
C1153      C1154   1.405       .  A
C1153      N1157   1.428   1_554  S
C1154      H1158   1.084   1_554  S
N1155      O1165   1.262       .  A
N1155      O1166   1.262       .  A
N1157      O1163   1.262       .  A
N1157      O1164   1.262   1_556  A
C1167      H1177   1.082       .  S
C1167      C1168   1.408   1_554  A
C1167      C1172   1.407       .  A
C1168      C1173   1.494       .  S
C1168      C1169   1.411       .  A
C1169      C1170   1.400       .  A
C1169      N1174   1.428       .  S
C1170      H1175   1.084       .  S
C1170      C1171   1.401       .  A
C1171      C1172   1.408   1_556  A
C1172      N1176   1.428       .  S
C1173      C1178   1.410   1_556  A
C1173      C1182   1.405       .  A
N1174      O1189   1.262       .  A
N1174      O1190   1.262   1_556  A
N1176      O1187   1.262       .  A
N1176      O1188   1.262   1_554  A
C1178      C1179   1.401       .  A
C1178      N1183   1.429       .  S
C1179      H1184   1.083       .  S
C1179      C1180   1.405   1_554  A
C1180      C1181   1.417       .  A
C1181      C1182   1.406       .  A
C1181      N1185   1.435       .  S
C1182      H1186   1.083       .  S
N1183      O1193   1.262       .  A
N1183      O1194   1.262       .  A
N1185      O1191   1.261       .  A
N1185      O1192   1.263       .  A
C1195      H1205   1.083       .  S
C1195      C1196   1.400       .  A
C1195      C1200   1.395       .  A
C1196      C1201   1.481       .  S
C1196      C1197   1.411       .  A
C1197      C1198   1.401       .  A
C1197      N1202   1.426       .  S
C1198      H1203   1.083       .  S
C1198      C1199   1.400       .  A
C1199      C1200   1.411       .  A
C1200      N1204   1.430       .  S
C1201      C1206   1.410       .  A
C1201      C1210   1.405       .  A
N1202      O1217   1.261       .  A
N1202      O1218   1.262       .  A
N1204      O1215   1.262       .  A
N1204      O1216   1.262       .  A
C1206      C1207   1.395       .  A
C1206      N1211   1.429       .  S
C1207      H1212   1.083       .  S
C1207      C1208   1.400       .  A
C1208      C1209   1.409       .  A
C1209      C1210   1.403       .  A
C1209      N1213   1.429       .  S
C1210      H1214   1.083       .  S
N1211      O1221   1.262       .  A
N1211      O1222   1.261       .  A
N1213      O1219   1.262       .  A
N1213      O1220   1.262       .  A
C1223      H1233   1.083       .  S
C1223      C1224   1.403       .  A
C1223      C1228   1.399       .  A
C1224      C1229   1.482       .  S
C1224      C1225   1.409       .  A
C1225      C1226   1.398       .  A
C1225      N1230   1.429       .  S
C1226      H1231   1.083       .  S
C1226      C1227   1.405       .  A
C1227      C1228   1.414       .  A
C1228      N1232   1.430       .  S
C1229      C1234   1.410       .  A
C1229      C1238   1.404       .  A
N1230      O1245   1.262       .  A
N1230      O1246   1.261       .  A
N1232      O1243   1.262       .  A
N1232      O1244   1.262       .  A
C1234      C1235   1.396       .  A
C1234      N1239   1.430       .  S
C1235      H1240   1.076       .  S
C1235      C1236   1.400       .  A
C1236      C1237   1.410       .  A
C1237      C1238   1.400       .  A
C1237      N1241   1.430       .  S
C1238      H1242   1.081       .  S
N1239      O1249   1.262       .  A
N1239      O1250   1.261       .  A
N1241      O1247   1.262       .  A
N1241      O1248   1.262       .  A
C1251      H1261   1.083   1_556  S
C1251      C1252   1.401       .  A
C1251      C1256   1.403       .  A
C1252      C1257   1.484       .  S
C1252      C1253   1.408   1_545  A
C1253      C1254   1.403       .  A
C1253      N1258   1.428       .  S
C1254      H1259   1.084       .  S
C1254      C1255   1.405   1_565  A
C1255      C1256   1.412       .  A
C1256      N1260   1.429   1_556  S
C1257      C1262   1.406       .  A
C1257      C1266   1.401   1_546  A
N1258      O1273   1.261       .  A
N1258      O1274   1.262       .  A
N1260      O1271   1.262   1_554  A
N1260      O1272   1.262       .  A
C1262      C1263   1.402       .  A
C1262      N1267   1.430       .  S
C1263      H1268   1.081       .  S
C1263      C1264   1.407       .  A
C1264      C1265   1.417   1_546  A
C1265      C1266   1.407       .  A
C1265      N1269   1.433       .  S
C1266      H1270   1.083       .  S
N1267      O1277   1.262       .  A
N1267      O1278   1.262       .  A
N1269      O1275   1.261       .  A
N1269      O1276   1.263       .  A
C1279      H1289   1.081       .  S
C1279      C1280   1.411   1_566  A
C1279      C1284   1.404       .  A
C1280      C1285   1.508       .  S
C1280      C1281   1.417       .  A
C1281      C1282   1.403       .  A
C1281      N1286   1.427       .  S
C1282      H1287   1.081       .  S
C1282      C1283   1.403   1_545  A
C1283      C1284   1.411   1_554  A
C1284      N1288   1.429       .  S
C1285      C1290   1.415   1_554  A
C1285      C1294   1.411       .  A
N1286      O1301   1.262       .  A
N1286      O1302   1.260       .  A
N1288      O1299   1.262       .  A
N1288      O1300   1.262       .  A
C1290      C1291   1.397       .  A
C1290      N1295   1.432       .  S
C1291      H1296   1.074       .  S
C1291      C1292   1.397   1_556  A
C1292      C1293   1.420       .  A
C1293      C1294   1.415       .  A
C1293      N1297   1.445       .  S
C1294      H1298   1.078       .  S
N1295      O1305   1.262   1_545  A
N1295      O1306   1.262       .  A
N1297      O1303   1.262       .  A
N1297      O1304   1.263       .  A
C1307      H1317   1.084       .  S
C1307      C1308   1.399       .  A
C1307      C1312   1.396       .  A
C1308      C1313   1.478       .  S
C1308      C1309   1.410       .  A
C1309      C1310   1.404       .  A
C1309      N1314   1.429   1_565  S
C1310      H1315   1.083   1_565  S
C1310      C1311   1.405       .  A
C1311      C1312   1.413       .  A
C1312      N1316   1.430       .  S
C1313      C1318   1.406       .  A
C1313      C1322   1.403       .  A
N1314      O1329   1.262       .  A
N1314      O1330   1.262       .  A
N1316      O1327   1.261       .  A
N1316      O1328   1.262       .  A
C1318      C1319   1.396       .  A
C1318      N1323   1.429       .  S
C1319      H1324   1.084       .  S
C1319      C1320   1.404       .  A
C1320      C1321   1.415       .  A
C1321      C1322   1.406       .  A
C1321      N1325   1.432       .  S
C1322      H1326   1.083       .  S
N1323      O1333   1.262       .  A
N1323      O1334   1.262       .  A
N1325      O1331   1.262       .  A
N1325      O1332   1.262       .  A
C1335      H1345   1.083       .  S
C1335      C1336   1.405       .  A
C1335      C1340   1.400       .  A
C1336      C1341   1.487       .  S
C1336      C1337   1.413       .  A
C1337      C1338   1.400       .  A
C1337      N1342   1.430       .  S
C1338      H1343   1.083       .  S
C1338      C1339   1.402       .  A
C1339      C1340   1.407       .  A
C1340      N1344   1.429       .  S
C1341      C1346   1.411       .  A
C1341      C1350   1.401       .  A
N1342      O1357   1.262       .  A
N1342      O1358   1.260       .  A
N1344      O1355   1.262       .  A
N1344      O1356   1.262       .  A
C1346      C1347   1.401       .  A
C1346      N1351   1.429       .  S
C1347      H1352   1.084       .  S
C1347      C1348   1.405       .  A
C1348      C1349   1.417       .  A
C1349      C1350   1.402       .  A
C1349      N1353   1.434       .  S
C1350      H1354   1.082       .  S
N1351      O1361   1.262       .  A
N1351      O1362   1.261       .  A
N1353      O1359   1.262       .  A
N1353      O1360   1.262       .  A
C1363      H1373   1.083       .  S
C1363      C1364   1.403       .  A
C1363      C1368   1.404       .  A
C1364      C1369   1.492       .  S
C1364      C1365   1.413       .  A
C1365      C1366   1.403       .  A
C1365      N1370   1.428       .  S
C1366      H1371   1.084       .  S
C1366      C1367   1.403       .  A
C1367      C1368   1.413       .  A
C1368      N1372   1.431       .  S
C1369      C1374   1.412       .  A
C1369      C1378   1.404       .  A
N1370      O1385   1.262       .  A
N1370      O1386   1.261       .  A
N1372      O1383   1.262       .  A
N1372      O1384   1.262       .  A
C1374      C1375   1.402       .  A
C1374      N1379   1.430       .  S
C1375      H1380   1.081       .  S
C1375      C1376   1.405       .  A
C1376      C1377   1.414       .  A
C1377      C1378   1.404       .  A
C1377      N1381   1.428       .  S
C1378      H1382   1.082       .  S
N1379      O1389   1.262       .  A
N1379      O1390   1.262       .  A
N1381      O1387   1.262       .  A
N1381      O1388   1.261       .  A
C1391      H1401   1.083       .  S
C1391      C1392   1.403       .  A
C1391      C1396   1.401       .  A
C1392      C1397   1.470       .  S
C1392      C1393   1.405       .  A
C1393      C1394   1.390       .  A
C1393      N1398   1.430       .  S
C1394      H1399   1.084       .  S
C1394      C1395   1.405       .  A
C1395      C1396   1.411       .  A
C1396      N1400   1.430       .  S
C1397      C1402   1.406       .  A
C1397      C1406   1.402       .  A
N1398      O1413   1.262       .  A
N1398      O1414   1.262       .  A
N1400      O1411   1.262       .  A
N1400      O1412   1.262       .  A
C1402      C1403   1.394       .  A
C1402      N1407   1.429       .  S
C1403      H1408   1.082       .  S
C1403      C1404   1.403       .  A
C1404      C1405   1.413       .  A
C1405      C1406   1.395       .  A
C1405      N1409   1.431       .  S
C1406      H1410   1.084       .  S
N1407      O1417   1.262       .  A
N1407      O1418   1.262       .  A
N1409      O1415   1.262       .  A
N1409      O1416   1.261       .  A
C1419      H1429   1.084       .  S
C1419      C1420   1.403       .  A
C1419      C1424   1.403       .  A
C1420      C1425   1.481       .  S
C1420      C1421   1.408       .  A
C1421      C1422   1.402       .  A
C1421      N1426   1.430       .  S
C1422      H1427   1.084       .  S
C1422      C1423   1.406       .  A
C1423      C1424   1.411       .  A
C1424      N1428   1.429   1_545  S
C1425      C1430   1.405       .  A
C1425      C1434   1.402       .  A
N1426      O1441   1.262       .  A
N1426      O1442   1.262       .  A
N1428      O1439   1.262       .  A
N1428      O1440   1.262       .  A
C1430      C1431   1.397       .  A
C1430      N1435   1.430       .  S
C1431      H1436   1.083       .  S
C1431      C1432   1.407       .  A
C1432      C1433   1.422       .  A
C1433      C1434   1.409       .  A
C1433      N1437   1.441       .  S
C1434      H1438   1.084       .  S
N1435      O1445   1.260       .  A
N1435      O1446   1.261       .  A
N1437      O1443   1.261       .  A
N1437      O1444   1.263       .  A
C1447      H1457   1.084       .  S
C1447      C1448   1.401       .  A
C1447      C1452   1.398       .  A
C1448      C1453   1.486       .  S
C1448      C1449   1.414       .  A
C1449      C1450   1.406       .  A
C1449      N1454   1.432       .  S
C1450      H1455   1.084       .  S
C1450      C1451   1.403       .  A
C1451      C1452   1.412       .  A
C1452      N1456   1.430       .  S
C1453      C1458   1.407       .  A
C1453      C1462   1.404       .  A
N1454      O1469   1.262       .  A
N1454      O1470   1.262       .  A
N1456      O1467   1.262       .  A
N1456      O1468   1.262       .  A
C1458      C1459   1.402       .  A
C1458      N1463   1.431       .  S
C1459      H1464   1.049       .  S
C1459      C1460   1.405       .  A
C1460      C1461   1.411       .  A
C1461      C1462   1.404       .  A
C1461      N1465   1.430       .  S
C1462      H1466   1.078       .  S
N1463      O1473   1.262       .  A
N1463      O1474   1.262       .  A
N1465      O1471   1.261       .  A
N1465      O1472   1.262       .  A
C1475      H1485   1.083   1_565  S
C1475      C1476   1.408       .  A
C1475      C1480   1.409       .  A
C1476      C1481   1.490       .  S
C1476      C1477   1.412       .  A
C1477      C1478   1.399       .  A
C1477      N1482   1.434       .  S
C1478      H1483   1.084       .  S
C1478      C1479   1.405       .  A
C1479      C1480   1.410       .  A
C1480      N1484   1.430       .  S
C1481      C1486   1.414       .  A
C1481      C1490   1.405       .  A
N1482      O1497   1.262       .  A
N1482      O1498   1.262       .  A
N1484      O1495   1.262   1_565  A
N1484      O1496   1.262       .  A
C1486      C1487   1.402       .  A
C1486      N1491   1.431       .  S
C1487      H1492   1.084       .  S
C1487      C1488   1.400       .  A
C1488      C1489   1.408   1_565  A
C1489      C1490   1.404   1_545  A
C1489      N1493   1.428       .  S
C1490      H1494   1.083   1_565  S
N1491      O1501   1.262       .  A
N1491      O1502   1.262       .  A
N1493      O1499   1.262       .  A
N1493      O1500   1.261       .  A
C1503      H1513   1.084       .  S
C1503      C1504   1.401       .  A
C1503      C1508   1.399       .  A
C1504      C1509   1.483       .  S
C1504      C1505   1.413       .  A
C1505      C1506   1.402       .  A
C1505      N1510   1.431       .  S
C1506      H1511   1.084       .  S
C1506      C1507   1.401       .  A
C1507      C1508   1.411       .  A
C1508      N1512   1.433       .  S
C1509      C1514   1.411       .  A
C1509      C1518   1.402       .  A
N1510      O1525   1.262       .  A
N1510      O1526   1.262       .  A
N1512      O1523   1.262       .  A
N1512      O1524   1.262       .  A
C1514      C1515   1.402       .  A
C1514      N1519   1.433       .  S
C1515      H1520   1.083       .  S
C1515      C1516   1.406       .  A
C1516      C1517   1.414       .  A
C1517      C1518   1.398       .  A
C1517      N1521   1.430       .  S
C1518      H1522   1.084       .  S
N1519      O1529   1.262       .  A
N1519      O1530   1.262       .  A
N1521      O1527   1.262       .  A
N1521      O1528   1.262       .  A
C1531      H1541   1.084       .  S
C1531      C1532   1.403       .  A
C1531      C1536   1.408       .  A
C1532      C1537   1.481       .  S
C1532      C1533   1.405       .  A
C1533      C1534   1.399       .  A
C1533      N1538   1.429       .  S
C1534      H1539   1.084       .  S
C1534      C1535   1.406       .  A
C1535      C1536   1.413       .  A
C1536      N1540   1.433       .  S
C1537      C1542   1.408       .  A
C1537      C1546   1.404       .  A
N1538      O1553   1.261       .  A
N1538      O1554   1.262       .  A
N1540      O1551   1.262       .  A
N1540      O1552   1.262       .  A
C1542      C1543   1.398       .  A
C1542      N1547   1.429       .  S
C1543      H1548   1.084       .  S
C1543      C1544   1.403       .  A
C1544      C1545   1.410       .  A
C1545      C1546   1.405       .  A
C1545      N1549   1.429       .  S
C1546      H1550   1.083       .  S
N1547      O1557   1.262       .  A
N1547      O1558   1.262       .  A
N1549      O1555   1.262       .  A
N1549      O1556   1.262       .  A
C1559      H1569   1.083       .  S
C1559      C1560   1.408       .  A
C1559      C1564   1.409       .  A
C1560      C1565   1.495       .  S
C1560      C1561   1.410       .  A
C1561      C1562   1.400       .  A
C1561      N1566   1.429       .  S
C1562      H1567   1.084       .  S
C1562      C1563   1.405       .  A
C1563      C1564   1.412       .  A
C1564      N1568   1.428       .  S
C1565      C1570   1.414       .  A
C1565      C1574   1.404       .  A
N1566      O1581   1.262       .  A
N1566      O1582   1.263       .  A
N1568      O1579   1.262       .  A
N1568      O1580   1.262       .  A
C1570      C1571   1.401       .  A
C1570      N1575   1.431       .  S
C1571      H1576   1.084       .  S
C1571      C1572   1.403       .  A
C1572      C1573   1.418       .  A
C1573      C1574   1.409       .  A
C1573      N1577   1.438       .  S
C1574      H1578   1.084       .  S
N1575      O1585   1.261       .  A
N1575      O1586   1.262       .  A
N1577      O1583   1.261       .  A
N1577      O1584   1.263       .  A
C1587      H1597   1.077       .  S
C1587      C1588   1.404       .  A
C1587      C1592   1.405       .  A
C1588      C1593   1.479       .  S
C1588      C1589   1.406       .  A
C1589      C1590   1.399       .  A
C1589      N1594   1.430       .  S
C1590      H1595   1.081       .  S
C1590      C1591   1.404       .  A
C1591      C1592   1.408       .  A
C1592      N1596   1.430   1_655  S
C1593      C1598   1.404       .  A
C1593      C1602   1.399       .  A
N1594      O1609   1.262       .  A
N1594      O1610   1.262       .  A
N1596      O1607   1.262       .  A
N1596      O1608   1.261       .  A
C1598      C1599   1.400       .  A
C1598      N1603   1.429       .  S
C1599      H1604   1.082       .  S
C1599      C1600   1.410       .  A
C1600      C1601   1.420       .  A
C1601      C1602   1.405       .  A
C1601      N1605   1.435       .  S
C1602      H1606   1.084       .  S
N1603      O1613   1.262       .  A
N1603      O1614   1.261       .  A
N1605      O1611   1.262       .  A
N1605      O1612   1.263       .  A
C1615      H1625   1.083   1_455  S
C1615      C1616   1.400       .  A
C1615      C1620   1.398       .  A
C1616      C1621   1.485       .  S
C1616      C1617   1.411       .  A
C1617      C1618   1.402       .  A
C1617      N1622   1.429       .  S
C1618      H1623   1.083       .  S
C1618      C1619   1.407       .  A
C1619      C1620   1.418       .  A
C1620      N1624   1.429   1_455  S
C1621      C1626   1.411   1_455  A
C1621      C1630   1.405       .  A
N1622      O1637   1.262       .  A
N1622      O1638   1.262       .  A
N1624      O1635   1.262       .  A
N1624      O1636   1.261       .  A
C1626      C1627   1.398       .  A
C1626      N1631   1.429       .  S
C1627      H1632   1.084       .  S
C1627      C1628   1.403   1_655  A
C1628      C1629   1.409       .  A
C1629      C1630   1.402       .  A
C1629      N1633   1.429       .  S
C1630      H1634   1.083       .  S
N1631      O1641   1.262       .  A
N1631      O1642   1.262       .  A
N1633      O1639   1.262       .  A
N1633      O1640   1.262       .  A
C1643      H1653   1.084       .  S
C1643      C1644   1.400       .  A
C1643      C1648   1.400       .  A
C1644      C1649   1.479       .  S
C1644      C1645   1.407       .  A
C1645      C1646   1.400       .  A
C1645      N1650   1.430       .  S
C1646      H1651   1.084       .  S
C1646      C1647   1.406       .  A
C1647      C1648   1.416       .  A
C1648      N1652   1.430       .  S
C1649      C1654   1.407       .  A
C1649      C1658   1.398       .  A
N1650      O1665   1.262       .  A
N1650      O1666   1.262       .  A
N1652      O1663   1.262       .  A
N1652      O1664   1.262       .  A
C1654      C1655   1.400       .  A
C1654      N1659   1.430       .  S
C1655      H1660   1.084   1_565  S
C1655      C1656   1.406       .  A
C1656      C1657   1.419       .  A
C1657      C1658   1.406       .  A
C1657      N1661   1.436       .  S
C1658      H1662   1.084       .  S
N1659      O1669   1.262       .  A
N1659      O1670   1.261   1_565  A
N1661      O1667   1.262       .  A
N1661      O1668   1.263       .  A
C1671      H1681   1.084       .  S
C1671      C1672   1.406       .  A
C1671      C1676   1.405   1_655  A
C1672      C1677   1.481       .  S
C1672      C1673   1.407       .  A
C1673      C1674   1.394   1_655  A
C1673      N1678   1.432       .  S
C1674      H1679   1.084       .  S
C1674      C1675   1.408       .  A
C1675      C1676   1.411       .  A
C1676      N1680   1.429       .  S
C1677      C1682   1.413       .  A
C1677      C1686   1.402       .  A
N1678      O1693   1.262       .  A
N1678      O1694   1.262       .  A
N1680      O1691   1.262       .  A
N1680      O1692   1.262       .  A
C1682      C1683   1.399       .  A
C1682      N1687   1.433       .  S
C1683      H1688   1.083       .  S
C1683      C1684   1.401       .  A
C1684      C1685   1.412       .  A
C1685      C1686   1.399       .  A
C1685      N1689   1.429       .  S
C1686      H1690   1.084       .  S
N1687      O1697   1.262       .  A
N1687      O1698   1.262       .  A
N1689      O1695   1.262       .  A
N1689      O1696   1.262       .  A
C1699      H1709   1.084       .  S
C1699      C1700   1.408       .  A
C1699      C1704   1.406       .  A
C1700      C1705   1.497       .  S
C1700      C1701   1.416       .  A
C1701      C1702   1.404       .  A
C1701      N1706   1.431       .  S
C1702      H1707   1.084       .  S
C1702      C1703   1.402       .  A
C1703      C1704   1.408       .  A
C1704      N1708   1.430       .  S
C1705      C1710   1.414       .  A
C1705      C1714   1.407       .  A
N1706      O1721   1.262   1_655  A
N1706      O1722   1.262       .  A
N1708      O1719   1.262       .  A
N1708      O1720   1.262       .  A
C1710      C1711   1.403       .  A
C1710      N1715   1.431       .  S
C1711      H1716   1.084       .  S
C1711      C1712   1.405       .  A
C1712      C1713   1.413       .  A
C1713      C1714   1.406       .  A
C1713      N1717   1.429       .  S
C1714      H1718   1.084       .  S
N1715      O1725   1.261       .  A
N1715      O1726   1.262       .  A
N1717      O1723   1.262       .  A
N1717      O1724   1.262   1_655  A
C1727      H1737   1.084       .  S
C1727      C1728   1.398       .  A
C1727      C1732   1.395       .  A
C1728      C1733   1.474       .  S
C1728      C1729   1.408       .  A
C1729      C1730   1.403       .  A
C1729      N1734   1.430       .  S
C1730      H1735   1.083   1_545  S
C1730      C1731   1.405       .  A
C1731      C1732   1.412       .  A
C1732      N1736   1.429       .  S
C1733      C1738   1.406       .  A
C1733      C1742   1.394       .  A
N1734      O1749   1.262   1_545  A
N1734      O1750   1.262   1_545  A
N1736      O1747   1.262       .  A
N1736      O1748   1.262       .  A
C1738      C1739   1.403       .  A
C1738      N1743   1.430       .  S
C1739      H1744   1.082       .  S
C1739      C1740   1.409       .  A
C1740      C1741   1.418       .  A
C1741      C1742   1.398       .  A
C1741      N1745   1.431       .  S
C1742      H1746   1.084       .  S
N1743      O1753   1.262       .  A
N1743      O1754   1.261       .  A
N1745      O1751   1.262       .  A
N1745      O1752   1.262       .  A
C1755      H1765   1.084       .  S
C1755      C1756   1.400       .  A
C1755      C1760   1.403       .  A
C1756      C1761   1.481       .  S
C1756      C1757   1.410       .  A
C1757      C1758   1.404       .  A
C1757      N1762   1.433       .  S
C1758      H1763   1.083       .  S
C1758      C1759   1.407       .  A
C1759      C1760   1.413       .  A
C1760      N1764   1.429       .  S
C1761      C1766   1.410       .  A
C1761      C1770   1.399   1_545  A
N1762      O1777   1.262       .  A
N1762      O1778   1.262       .  A
N1764      O1775   1.262       .  A
N1764      O1776   1.262       .  A
C1766      C1767   1.401       .  A
C1766      N1771   1.426       .  S
C1767      H1772   1.084       .  S
C1767      C1768   1.403   1_545  A
C1768      C1769   1.414       .  A
C1769      C1770   1.398       .  A
C1769      N1773   1.427       .  S
C1770      H1774   1.084       .  S
N1771      O1781   1.262       .  A
N1771      O1782   1.262       .  A
N1773      O1779   1.262       .  A
N1773      O1780   1.262       .  A
C1783      H1793   1.082       .  S
C1783      C1784   1.406       .  A
C1783      C1788   1.406       .  A
C1784      C1789   1.488       .  S
C1784      C1785   1.411       .  A
C1785      C1786   1.399       .  A
C1785      N1790   1.431       .  S
C1786      H1791   1.077       .  S
C1786      C1787   1.402       .  A
C1787      C1788   1.409       .  A
C1788      N1792   1.430       .  S
C1789      C1794   1.412       .  A
C1789      C1798   1.405       .  A
N1790      O1805   1.262       .  A
N1790      O1806   1.262       .  A
N1792      O1803   1.262       .  A
N1792      O1804   1.262       .  A
C1794      C1795   1.400       .  A
C1794      N1799   1.434       .  S
C1795      H1800   1.084       .  S
C1795      C1796   1.405       .  A
C1796      C1797   1.413       .  A
C1797      C1798   1.406       .  A
C1797      N1801   1.429       .  S
C1798      H1802   1.084       .  S
N1799      O1809   1.262       .  A
N1799      O1810   1.262       .  A
N1801      O1807   1.262       .  A
N1801      O1808   1.262       .  A
C1811      H1821   1.084       .  S
C1811      C1812   1.405       .  A
C1811      C1816   1.401       .  A
C1812      C1817   1.490       .  S
C1812      C1813   1.413       .  A
C1813      C1814   1.403       .  A
C1813      N1818   1.431       .  S
C1814      H1819   1.083       .  S
C1814      C1815   1.404       .  A
C1815      C1816   1.409       .  A
C1816      N1820   1.429       .  S
C1817      C1822   1.412       .  A
C1817      C1826   1.405       .  A
N1818      O1833   1.262       .  A
N1818      O1834   1.262       .  A
N1820      O1831   1.261       .  A
N1820      O1832   1.262       .  A
C1822      C1823   1.403       .  A
C1822      N1827   1.433       .  S
C1823      H1828   1.083       .  S
C1823      C1824   1.408       .  A
C1824      C1825   1.412       .  A
C1825      C1826   1.403       .  A
C1825      N1829   1.428       .  S
C1826      H1830   1.083       .  S
N1827      O1837   1.262       .  A
N1827      O1838   1.262       .  A
N1829      O1835   1.262       .  A
N1829      O1836   1.262       .  A
C1839      H1849   1.084       .  S
C1839      C1840   1.404       .  A
C1839      C1844   1.404   1_545  A
C1840      C1845   1.477       .  S
C1840      C1841   1.405   1_545  A
C1841      C1842   1.396       .  A
C1841      N1846   1.429   1_565  S
C1842      H1847   1.084       .  S
C1842      C1843   1.406       .  A
C1843      C1844   1.410       .  A
C1844      N1848   1.428       .  S
C1845      C1850   1.406       .  A
C1845      C1854   1.399       .  A
N1846      O1861   1.262   1_545  A
N1846      O1862   1.262       .  A
N1848      O1859   1.262       .  A
N1848      O1860   1.262       .  A
C1850      C1851   1.400       .  A
C1850      N1855   1.429       .  S
C1851      H1856   1.081       .  S
C1851      C1852   1.407       .  A
C1852      C1853   1.416       .  A
C1853      C1854   1.400       .  A
C1853      N1857   1.430       .  S
C1854      H1858   1.084       .  S
N1855      O1865   1.261       .  A
N1855      O1866   1.262       .  A
N1857      O1863   1.262       .  A
N1857      O1864   1.262       .  A
C1867      H1877   1.084       .  S
C1867      C1868   1.402       .  A
C1867      C1872   1.401       .  A
C1868      C1873   1.484       .  S
C1868      C1869   1.410       .  A
C1869      C1870   1.401       .  A
C1869      N1874   1.426       .  S
C1870      H1875   1.084       .  S
C1870      C1871   1.402       .  A
C1871      C1872   1.413       .  A
C1872      N1876   1.431       .  S
C1873      C1878   1.409       .  A
C1873      C1882   1.400       .  A
N1874      O1889   1.261       .  A
N1874      O1890   1.262       .  A
N1876      O1887   1.262       .  A
N1876      O1888   1.262       .  A
C1878      C1879   1.402       .  A
C1878      N1883   1.430       .  S
C1879      H1884   1.077       .  S
C1879      C1880   1.404       .  A
C1880      C1881   1.415       .  A
C1881      C1882   1.401       .  A
C1881      N1885   1.430       .  S
C1882      H1886   1.083       .  S
N1883      O1893   1.262       .  A
N1883      O1894   1.262       .  A
N1885      O1891   1.260       .  A
N1885      O1892   1.262       .  A
C1895      H1905   1.083       .  S
C1895      C1896   1.405       .  A
C1895      C1900   1.406       .  A
C1896      C1901   1.485       .  S
C1896      C1897   1.410       .  A
C1897      C1898   1.397       .  A
C1897      N1902   1.433       .  S
C1898      H1903   1.084       .  S
C1898      C1899   1.407       .  A
C1899      C1900   1.412       .  A
C1900      N1904   1.431       .  S
C1901      C1906   1.410       .  A
C1901      C1910   1.403       .  A
N1902      O1917   1.262       .  A
N1902      O1918   1.262       .  A
N1904      O1915   1.262   1_655  A
N1904      O1916   1.262       .  A
C1906      C1907   1.395       .  A
C1906      N1911   1.433       .  S
C1907      H1912   1.084       .  S
C1907      C1908   1.403       .  A
C1908      C1909   1.419       .  A
C1909      C1910   1.407       .  A
C1909      N1913   1.438       .  S
C1910      H1914   1.084       .  S
N1911      O1921   1.262       .  A
N1911      O1922   1.262       .  A
N1913      O1919   1.262       .  A
N1913      O1920   1.263       .  A
C1923      H1933   1.083       .  S
C1923      C1924   1.406   1_655  A
C1923      C1928   1.408       .  A
C1924      C1929   1.491       .  S
C1924      C1925   1.409       .  A
C1925      C1926   1.398       .  A
C1925      N1930   1.430       .  S
C1926      H1931   1.084       .  S
C1926      C1927   1.406   1_455  A
C1927      C1928   1.417       .  A
C1928      N1932   1.433       .  S
C1929      C1934   1.412       .  A
C1929      C1938   1.402       .  A
N1930      O1945   1.262       .  A
N1930      O1946   1.262       .  A
N1932      O1943   1.263       .  A
N1932      O1944   1.262       .  A
C1934      C1935   1.405       .  A
C1934      N1939   1.429   1_455  S
C1935      H1940   1.083       .  S
C1935      C1936   1.408       .  A
C1936      C1937   1.417       .  A
C1937      C1938   1.400       .  A
C1937      N1941   1.429       .  S
C1938      H1942   1.083       .  S
N1939      O1949   1.262       .  A
N1939      O1950   1.262       .  A
N1941      O1947   1.262       .  A
N1941      O1948   1.262       .  A
C1951      H1961   1.084       .  S
C1951      C1952   1.403       .  A
C1951      C1956   1.399       .  A
C1952      C1957   1.484       .  S
C1952      C1953   1.412       .  A
C1953      C1954   1.402       .  A
C1953      N1958   1.431       .  S
C1954      H1959   1.084       .  S
C1954      C1955   1.402       .  A
C1955      C1956   1.412       .  A
C1956      N1960   1.435       .  S
C1957      C1962   1.414       .  A
C1957      C1966   1.401       .  A
N1958      O1973   1.262       .  A
N1958      O1974   1.262       .  A
N1960      O1971   1.263       .  A
N1960      O1972   1.262       .  A
C1962      C1963   1.406       .  A
C1962      N1967   1.432       .  S
C1963      H1968   1.083       .  S
C1963      C1964   1.404       .  A
C1964      C1965   1.412       .  A
C1965      C1966   1.395       .  A
C1965      N1969   1.430       .  S
C1966      H1970   1.084       .  S
N1967      O1977   1.262       .  A
N1967      O1978   1.262       .  A
N1969      O1975   1.261       .  A
N1969      O1976   1.262       .  A
C1979      H1989   1.082       .  S
C1979      C1980   1.399       .  A
C1979      C1984   1.395   1_655  A
C1980      C1985   1.488       .  S
C1980      C1981   1.419       .  A
C1981      C1982   1.407   1_655  A
C1981      N1986   1.432       .  S
C1982      H1987   1.083       .  S
C1982      C1983   1.404       .  A
C1983      C1984   1.413       .  A
C1984      N1988   1.428       .  S
C1985      C1990   1.416       .  A
C1985      C1994   1.405       .  A
N1986      O2001   1.261   1_655  A
N1986      O2002   1.262       .  A
N1988      O1999   1.262   1_455  A
N1988      O2000   1.262       .  A
C1990      C1991   1.397       .  A
C1990      N1995   1.429       .  S
C1991      H1996   1.084       .  S
C1991      C1992   1.400       .  A
C1992      C1993   1.409       .  A
C1993      C1994   1.402       .  A
C1993      N1997   1.430       .  S
C1994      H1998   1.082   1_655  S
N1995      O2005   1.262       .  A
N1995      O2006   1.259       .  A
N1997      O2003   1.262       .  A
N1997      O2004   1.262       .  A
C2007      H2017   1.083       .  S
C2007      C2008   1.406       .  A
C2007      C2012   1.402       .  A
C2008      C2013   1.497       .  S
C2008      C2009   1.415       .  A
C2009      C2010   1.405       .  A
C2009      N2014   1.429       .  S
C2010      H2015   1.083       .  S
C2010      C2011   1.403       .  A
C2011      C2012   1.410       .  A
C2012      N2016   1.429       .  S
C2013      C2018   1.412       .  A
C2013      C2022   1.407       .  A
N2014      O2029   1.262       .  A
N2014      O2030   1.262       .  A
N2016      O2027   1.261       .  A
N2016      O2028   1.262       .  A
C2018      C2019   1.402       .  A
C2018      N2023   1.431       .  S
C2019      H2024   1.084       .  S
C2019      C2020   1.409       .  A
C2020      C2021   1.413       .  A
C2021      C2022   1.406       .  A
C2021      N2025   1.428       .  S
C2022      H2026   1.083       .  S
N2023      O2033   1.262       .  A
N2023      O2034   1.262       .  A
N2025      O2031   1.262       .  A
N2025      O2032   1.262       .  A
