geometry optimzed in LAMMPS
_audit_creation_date              2020-11-30 
_audit_creation_method            'lammps2cif' 
_symmetry_space_group_name_H-M    'P1' 
_symmetry_Int_Tables_number       1 
_symmetry_cell_setting            triclinic 
loop_ 
_symmetry_equiv_pos_as_xyz 
  x,y,z 
_cell_length_a                    47.53514061 
_cell_length_b                    25.316745987874718 
_cell_length_c                    29.52820471642771 
_cell_angle_alpha                 91.79841075844074 
_cell_angle_beta                  90.89147116426625 
_cell_angle_gamma                 89.90171562272232 
loop_ 
_atom_site_label 
_atom_site_type_symbol 
_atom_site_fract_x 
_atom_site_fract_y 
_atom_site_fract_z 
_atom_site_charge 
C1          C  0.34766557  0.74357968  0.00322664     0.79500
N2          N  0.33565479  0.71508238  0.46269859    -0.78800
C3          C  0.31970064  0.67094630  0.46694401     0.81900
N4          N  0.31261429  0.65596934  0.50900937    -0.78800
C5          C  0.32475602  0.68378106  0.05005305     0.82000
N6          N  0.34087054  0.72714445  0.04499941    -0.80500
C7          C  0.10628172  0.84713418  0.99536643     0.79500
N8          N  0.11906048  0.83343083  0.45247518    -0.78800
C9          C  0.14161578  0.80100875  0.44951332     0.81900
N10         N  0.15297968  0.78142404  0.48776532    -0.78800
C11         C  0.14079217  0.79539951  0.03102075     0.82000
N12         N  0.11782155  0.82693644  0.03349000    -0.80500
C13         C  0.30009227  0.27669964  0.99527310     0.79500
N14         N  0.28190008  0.28766912  0.45681751    -0.78800
C15         C  0.26228309  0.32654418  0.45878883     0.81900
N16         N  0.25940770  0.35549089  0.49722371    -0.78800
C17         C  0.27763170  0.34850989  0.03222672     0.82000
N18         N  0.29690784  0.30891616  0.03275780    -0.80500
N19         N  0.45900231  0.97372561  0.99694952    -0.37400
N20         N  0.40856591  0.03733678  0.00007676    -0.57900
N21         N  0.44348266  0.13296676  0.99752629    -0.37400
N22         N  0.49392741  0.06964188  0.00203785    -0.57900
C23         C  0.43972438  0.93660434  0.00653719     0.26200
C24         C  0.48457843  0.95373123  0.00718734     0.26200
C25         C  0.41795555  0.15416203  0.00578808     0.26200
C26         C  0.46282679  0.17096029  0.00723052     0.26200
C27         C  0.39645679  0.98937726  0.99339965     0.34800
C28         C  0.38821701  0.07349487  0.99292890     0.34800
C29         C  0.00884476  0.02661107  0.99578424     0.34800
C30         C  0.00147816  0.11081737  0.99578552     0.34800
C31         C  0.45326707  0.89231269  0.02276744    -0.22700
C32         C  0.48160063  0.90313346  0.02318624    -0.22700
C33         C  0.42106181  0.20648724  0.02052498    -0.22700
C34         C  0.44940040  0.21706465  0.02144855    -0.22700
C35         C  0.36815375  0.99502049  0.98281475    -0.23700
C36         C  0.36292983  0.04837919  0.98239572    -0.23700
C37         C  0.03383403  0.04974066  0.98304294    -0.23700
C38         C  0.02916070  0.10323371  0.98316109    -0.23700
C39         C  0.41035121  0.94064111  0.99918014    -0.19100
C40         C  0.00510619  0.97225035  0.00282040    -0.19100
C41         C  0.49215211  0.16604160  0.00140266    -0.19100
C42         C  0.39180529  0.12881709  0.99769083    -0.19100
H43         H  0.44373482  0.85588076  0.03305142     0.13900
H44         H  0.99157046  0.87295131  0.04080269     0.13900
H45         H  0.40458326  0.23433609  0.02935436     0.13900
H46         H  0.45900488  0.25455568  0.03114399     0.13900
H47         H  0.35286406  0.96396701  0.97630820     0.12100
H48         H  0.34277130  0.06656276  0.97539246     0.12100
H49         H  0.05346844  0.03018626  0.97493227     0.12100
H50         H  0.04440491  0.13309845  0.97513869     0.12100
H51         H  0.45519899  0.00938606  0.98144282     0.25400
H52         H  0.44721876  0.09562859  0.98330571     0.25400
C53         C  0.05791905  0.34801668  0.99572843     0.79500
N54         N  0.07244308  0.36116210  0.45485494    -0.78800
C55         C  0.09043080  0.40235122  0.45322176     0.81900
N56         N  0.09795381  0.42920099  0.49200087    -0.78800
C57         C  0.08490637  0.41580652  0.03226611     0.82000
N58         N  0.06704025  0.37397221  0.03435669    -0.80500
O59         O  0.16495714  0.63223763  0.29760575    -0.80900
O60         O  0.15670900  0.54908865  0.18721776    -0.80900
O61         O  0.18797998  0.65488824  0.20166899    -0.80900
O62         O  0.16699293  0.45320599  0.28510899    -0.80900
O63         O  0.19094553  0.60989511  0.13651775    -0.81000
O64         O  0.14744152  0.53053185  0.29600753    -0.80900
O65         O  0.17064828  0.46636021  0.19384044    -0.80900
O66         O  0.20483559  0.67143217  0.28993438    -0.80900
C67         C  0.17975103  0.67310571  0.30299106     1.08800
C68         C  0.15269177  0.49997472  0.17986926     1.08700
C69         C  0.18516569  0.65229965  0.15801575     1.08800
C70         C  0.14669552  0.48135260  0.30011511     1.08700
O71         O  0.19754988  0.49910975  0.34554240    -0.80900
O72         O  0.23867021  0.59534603  0.18523731    -0.81000
O73         O  0.24714991  0.59355279  0.28571884    -0.80900
O74         O  0.23248760  0.47845735  0.20602116    -0.80900
O75         O  0.20864055  0.51238471  0.15147547    -0.80900
O76         O  0.21765583  0.59884708  0.34316973    -0.80900
O77         O  0.22690167  0.46982689  0.29398727    -0.80900
O78         O  0.24265569  0.67100528  0.22353433    -0.80900
Co79       Co  0.18212394  0.56522976  0.31686009     1.51500
Co80       Co  0.19610620  0.57358737  0.19045972     1.51700
Co81       Co  0.21793283  0.61847439  0.24360161     1.51600
Co82       Co  0.19956777  0.47145249  0.24479937     1.51500
O83         O  0.19746761  0.55084010  0.25433606    -1.42800
C84         C  0.21826801  0.47003426  0.33382378     1.08700
C85         C  0.25173833  0.63955823  0.19317414     1.08800
C86         C  0.24261895  0.59952724  0.32773013     1.08700
C87         C  0.22907763  0.48471200  0.16441751     1.08700
C88         C  0.12958423  0.48190988  0.14859726    -0.06900
C89         C  0.12179581  0.51449817  0.11285643    -0.18000
C90         C  0.10530238  0.49534140  0.07622953     0.10300
C91         C  0.09675567  0.44170008  0.07427943    -0.06800
C92         C  0.10239784  0.41057047  0.11193055    -0.18000
C93         C  0.11828265  0.43024443  0.14910998     0.10300
S94         S  0.09619439  0.54150000  0.03305471    -0.33000
S95         S  0.12342498  0.38751404  0.19611832    -0.33000
H96         H  0.12053760  0.42882357  0.22855602     0.28400
H97         H  0.06975497  0.51887972  0.02272592     0.28300
H98         H  0.12968787  0.55460971  0.11223810     0.18900
H99         H  0.09535550  0.36987629  0.11175685     0.18900
C100        C  0.12586179  0.45829479  0.33105412    -0.06900
C101        C  0.12893380  0.40480748  0.34188938    -0.18000
C102        C  0.11693952  0.38488750  0.38080347     0.10300
C103        C  0.10124939  0.41888871  0.40952766    -0.06800
C104        C  0.09571229  0.47054661  0.39654523    -0.18000
C105        C  0.10718355  0.49044670  0.35713424     0.10300
S106        S  0.12423442  0.31698445  0.39357163    -0.33000
S107        S  0.09787461  0.55704084  0.34179813    -0.33000
H108        H  0.08033409  0.56916533  0.37862501     0.28400
H109        H  0.12672863  0.32542405  0.44074921     0.28300
H110        H  0.14250709  0.37912703  0.32189137     0.18900
H111        H  0.08256235  0.49551611  0.41787932     0.18900
C112        C  0.03884435  0.30183470  0.99806970    -0.06900
C113        C  0.04214050  0.26756457  0.03433029    -0.18000
C114        C  0.02583971  0.22173662  0.03703615     0.10300
C115        C  0.00591468  0.20908236  0.00234865    -0.06800
C116        C  0.00623038  0.24368456  0.45996720    -0.18000
C117        C  0.02311393  0.28868542  0.45853129     0.10300
S118        S  0.53081249  0.19162292  0.08873972    -0.33000
S119        S  0.01956842  0.32745816  0.40855329    -0.33000
H120        H  0.01989302  0.37631757  0.43262530     0.28400
H121        H  0.50327658  0.17145636  0.08764298     0.28300
H122        H  0.05780441  0.27615007  0.06058164     0.18900
H123        H  0.99275809  0.23316121  0.43113213     0.18900
C124        C  0.36667530  0.16301054  0.99434085    -0.06900
C125        C  0.34782958  0.16475673  0.03030972    -0.18000
C126        C  0.32507770  0.19966607  0.03047042     0.11300
C127        C  0.32176610  0.23523292  0.99483440    -0.06800
C128        C  0.33666430  0.23366640  0.45432699    -0.18000
C129        C  0.35894499  0.19786475  0.45119381     0.10300
S130        S  0.30051310  0.19501469  0.07597999    -0.33000
S131        S  0.38028521  0.19869854  0.40124181    -0.33000
H132        H  0.38751795  0.14482511  0.40101683     0.28400
H133        H  0.27673006  0.21020056  0.05059837     0.28300
H134        H  0.35090123  0.13865408  0.05837492     0.18900
H135        H  0.33332562  0.26120546  0.42737548     0.18900
C136        C  0.27399541  0.38770753  0.06962590    -0.06900
C137        C  0.26540562  0.43858195  0.05728627    -0.18000
C138        C  0.25189574  0.47275514  0.08767473     0.10300
C139        C  0.24763315  0.45650605  0.13234568    -0.06800
C140        C  0.25970148  0.40871723  0.14622575    -0.18000
C141        C  0.27277798  0.37417272  0.11540227     0.10300
S142        S  0.23919843  0.53419304  0.06566969    -0.33000
S143        S  0.28434502  0.31154702  0.13572878    -0.33000
H144        H  0.31120209  0.31569878  0.11682813     0.28400
H145        H  0.24362155  0.56380993  0.10577131     0.28300
H146        H  0.26728177  0.45039477  0.02247316     0.18900
H147        H  0.25725236  0.39624276  0.18072042     0.18900
C148        C  0.24870952  0.34773133  0.41859651    -0.06900
C149        C  0.26649018  0.36856916  0.38640835    -0.18000
C150        C  0.25766496  0.41026725  0.35980779     0.10300
C151        C  0.22991475  0.43034111  0.36424904    -0.06800
C152        C  0.21154821  0.40666860  0.39427932    -0.18000
C153        C  0.22058446  0.36542814  0.42111567     0.10300
S154        S  0.28372925  0.43803395  0.32361451    -0.33000
S155        S  0.19585191  0.33884674  0.46015712    -0.33000
H156        H  0.21008775  0.29063974  0.46566188     0.28400
H157        H  0.27427894  0.49047332  0.32795007     0.28300
H158        H  0.28834835  0.35630463  0.38541283     0.18900
H159        H  0.18991943  0.42001117  0.39666335     0.18900
C160        C  0.08057536  0.87960772  0.99824543    -0.06900
C161        C  0.06332787  0.87578487  0.45988492    -0.18000
C162        C  0.03900719  0.90650191  0.45895811     0.10300
C163        C  0.03025398  0.93798686  0.00141854    -0.06800
C164        C  0.05020555  0.94328786  0.03660920    -0.18000
C165        C  0.07550660  0.91537386  0.03506862     0.10300
S166        S  0.01540274  0.89757121  0.41084355    -0.33000
S167        S  0.10091275  0.92999620  0.07965847    -0.33000
H168        H  0.12419540  0.92929220  0.05079475     0.28400
H169        H  0.00568242  0.95001316  0.41031265     0.28300
H170        H  0.06680859  0.84743654  0.43226062     0.18900
H171        H  0.04642763  0.97096184  0.06462773     0.18900
C172        C  0.15294465  0.76957111  0.07119373    -0.06900
C173        C  0.18089443  0.75229139  0.06759001    -0.18000
C174        C  0.19204636  0.71536763  0.09671420     0.10300
C175        C  0.17565407  0.69770926  0.13245618    -0.06800
C176        C  0.14895775  0.71944498  0.13991702    -0.18000
C177        C  0.13711627  0.75496476  0.10924311     0.10300
S178        S  0.22674720  0.68884741  0.08619293    -0.33000
S179        S  0.10126488  0.77670857  0.11742456    -0.33000
H180        H  0.09826083  0.75753623  0.16130056     0.28400
H181        H  0.23105561  0.71245383  0.04437927     0.28300
H182        H  0.19355694  0.76514884  0.03985434     0.18900
H183        H  0.13665217  0.70543225  0.16765722     0.18900
C184        C  0.15173624  0.78157026  0.40519763    -0.06900
C185        C  0.13206342  0.76081637  0.37350409    -0.18000
C186        C  0.14074184  0.72953104  0.33636709     0.10300
C187        C  0.16965765  0.71812150  0.33125628    -0.06800
C188        C  0.18935996  0.74409539  0.36000142    -0.18000
C189        C  0.18071916  0.77578775  0.39671714     0.10300
S190        S  0.11397084  0.70388675  0.29775442    -0.33000
S191        S  0.20768110  0.80572098  0.43267685    -0.33000
H192        H  0.19119316  0.84888020  0.44757515     0.28400
H193        H  0.13141379  0.70161753  0.25965739     0.28300
H194        H  0.10975245  0.76618984  0.37917799     0.18900
H195        H  0.21165736  0.73676375  0.35593694     0.18900
C196        C  0.36361497  0.79411088  0.99981856    -0.06900
C197        C  0.36221258  0.83087286  0.03663490    -0.18000
C198        C  0.37703303  0.87852705  0.03726812     0.10300
C199        C  0.39336990  0.89126520  0.99973900    -0.06800
C200        C  0.39160896  0.85299642  0.45563789    -0.18000
C201        C  0.37820216  0.80394990  0.45800310     0.10300
S202        S  0.37423028  0.92112921  0.08718524    -0.33000
S203        S  0.38573504  0.75564636  0.41371783    -0.33000
H204        H  0.38926559  0.71369908  0.44345767     0.28400
H205        H  0.40118276  0.94352421  0.08519115     0.28300
H206        H  0.34955021  0.82245016  0.06572575     0.18900
H207        H  0.40514370  0.86027244  0.42729855     0.18900
C208        C  0.31341012  0.67233097  0.09487175    -0.06900
C209        C  0.30185527  0.71448189  0.12036049    -0.18000
C210        C  0.28359601  0.70544528  0.15611746     0.10300
C211        C  0.27660000  0.65271448  0.16613599    -0.06800
C212        C  0.29117709  0.61103766  0.14445453    -0.18000
C213        C  0.30966254  0.62031405  0.10931278     0.10300
S214        S  0.26710546  0.76167210  0.18429799    -0.33000
S215        S  0.32764497  0.56417881  0.08433860    -0.33000
H216        H  0.34990784  0.59304930  0.06644373     0.28400
H217        H  0.28179218  0.80137136  0.16226577     0.28300
H218        H  0.30522721  0.75449766  0.10974579     0.18900
H219        H  0.28719782  0.57060365  0.15354390     0.18900
C220        C  0.26607630  0.61383587  0.35869473    -0.06900
C221        C  0.27355185  0.57987415  0.39336800    -0.18000
C222        C  0.29385997  0.59470403  0.42613816     0.10300
C223        C  0.30535962  0.64635502  0.42649327    -0.06800
C224        C  0.29909242  0.67878463  0.38994077    -0.18000
C225        C  0.27977760  0.66296775  0.35599801     0.10300
S226        S  0.30466808  0.54532127  0.46535725    -0.33000
S227        S  0.27065674  0.70859229  0.31241115    -0.33000
H228        H  0.29369434  0.74278352  0.31972793     0.28400
H229        H  0.33221930  0.56493354  0.47118742     0.28300
H230        H  0.26348291  0.54162938  0.39501318     0.18900
H231        H  0.30776359  0.71826301  0.38948174     0.18900
C232        C  0.34521882  0.74308434  0.49982302     0.79500
N233        N  0.33741864  0.71626023  0.96597036    -0.78800
C234        C  0.32126731  0.67215804  0.97046424     0.81900
N235        N  0.31471522  0.65707152  0.01274717    -0.78800
C236        C  0.32195403  0.68350132  0.54643207     0.82000
N237        N  0.33784789  0.72738902  0.54158012    -0.80500
C238        C  0.10844532  0.84752439  0.49357787     0.79500
N239        N  0.11745771  0.83437217  0.95424021    -0.78800
C240        C  0.14076164  0.80347352  0.95159135     0.81900
N241        N  0.15201555  0.78399650  0.98992466    -0.78800
C242        C  0.14248186  0.79432865  0.52918687     0.82000
N243        N  0.12002020  0.82740162  0.53182439    -0.80500
C244        C  0.29733913  0.27652424  0.49465565     0.79500
N245        N  0.28474679  0.28562268  0.95689154    -0.78800
C246        C  0.26486847  0.32406815  0.95733282     0.81900
N247        N  0.26167863  0.35492176  0.99472956    -0.78800
C248        C  0.27543610  0.34703853  0.53421441     0.82000
N249        N  0.29453601  0.30710741  0.53324181    -0.80500
N250        N  0.45542543  0.97229537  0.48409453    -0.37400
N251        N  0.40549205  0.03728658  0.48847457    -0.57900
N252        N  0.44108420  0.13249065  0.48732853    -0.37400
N253        N  0.49092775  0.06757276  0.49016374    -0.57900
C254        C  0.43593310  0.93553132  0.49376551     0.26200
C255        C  0.48096380  0.95130820  0.49322481     0.26200
C256        C  0.41566838  0.15348137  0.49697698     0.26200
C257        C  0.46072317  0.16928720  0.49930323     0.26200
C258        C  0.39304617  0.98971531  0.48131274     0.34800
C259        C  0.38551532  0.07405329  0.48108544     0.34800
C260        C  0.01150685  0.03046117  0.48873401     0.34800
C261        C  0.00306459  0.11418698  0.48902161     0.34800
C262        C  0.44934520  0.89039986  0.50861926    -0.22700
C263        C  0.47774615  0.90028828  0.50811494    -0.22700
C264        C  0.41911733  0.20447982  0.51483102    -0.22700
C265        C  0.44756426  0.21438319  0.51641730    -0.22700
C266        C  0.36492043  0.99620054  0.46984871    -0.23700
C267        C  0.36014880  0.04974127  0.46954077    -0.23700
C268        C  0.03635897  0.05482103  0.47695837    -0.23700
C269        C  0.03101975  0.10809585  0.47741004    -0.23700
C270        C  0.40643602  0.94066038  0.48791952    -0.19100
C271        C  0.00840177  0.97604869  0.49584677    -0.19100
C272        C  0.49008334  0.16415614  0.49315245    -0.19100
C273        C  0.38935257  0.12908084  0.48780585    -0.19100
H274        H  0.43970010  0.85399629  0.51871577     0.13900
H275        H  0.99608762  0.87674349  0.53473802     0.13900
H276        H  0.40280329  0.23181333  0.52550519     0.13900
H277        H  0.45741909  0.25076041  0.52855032     0.13900
H278        H  0.34944648  0.96558625  0.46286391     0.12100
H279        H  0.34019502  0.06859292  0.46231262     0.12100
H280        H  0.05635818  0.03624407  0.46954429     0.12100
H281        H  0.04599272  0.13880294  0.47030582     0.12100
H282        H  0.45176321  0.00868794  0.46982579     0.25400
H283        H  0.44452221  0.09620732  0.47093113     0.25400
C284        C  0.06143602  0.34694321  0.49478261     0.79500
N285        N  0.06763677  0.36300225  0.95504159    -0.78800
C286        C  0.08553937  0.40438099  0.95267292     0.81900
N287        N  0.09411645  0.43047241  0.99123160    -0.78800
C288        C  0.08766605  0.41499192  0.53252578     0.82000
N289        N  0.06954323  0.37339653  0.53376291    -0.80500
O290        O  0.16676941  0.63190408  0.80343184    -0.80900
O291        O  0.15620746  0.54974659  0.69096809    -0.80900
O292        O  0.18873796  0.65614547  0.70417619    -0.80900
O293        O  0.16703882  0.45320860  0.78862528    -0.80900
O294        O  0.19033679  0.60964092  0.63968271    -0.81000
O295        O  0.14854580  0.53112741  0.80130125    -0.80900
O296        O  0.17005961  0.46700406  0.69723653    -0.80900
O297        O  0.20633567  0.67166937  0.79384459    -0.80900
C298        C  0.18149142  0.67292952  0.80817136     1.08800
C299        C  0.15220405  0.50071113  0.68315064     1.08700
C300        C  0.18575124  0.65303050  0.66038149     1.08800
C301        C  0.14707304  0.48186803  0.80417143     1.08700
O302        O  0.19899095  0.49687048  0.84849273    -0.80900
O303        O  0.23825703  0.59494148  0.68721564    -0.81000
O304        O  0.24847021  0.59353779  0.78768988    -0.80900
O305        O  0.23193405  0.47817474  0.70817172    -0.80900
O306        O  0.20774913  0.51233426  0.65417441    -0.80900
O307        O  0.21989728  0.59701728  0.84630745    -0.80900
O308        O  0.22748100  0.46851789  0.79554273    -0.80900
O309        O  0.24333231  0.67068503  0.72535308    -0.80900
Co310      Co  0.18382306  0.56429743  0.82107941     1.51500
Co311      Co  0.19575315  0.57371437  0.69359511     1.51700
Co312      Co  0.21866118  0.61876043  0.74639508     1.51600
Co313      Co  0.19943630  0.47134421  0.74755488     1.51500
O314        O  0.19795687  0.55089920  0.75753589    -1.42800
C315        C  0.21929807  0.46750175  0.83550706     1.08700
C316        C  0.25137797  0.63928997  0.69408350     1.08800
C317        C  0.24461256  0.59883064  0.82996860     1.08700
C318        C  0.22799119  0.48390658  0.66667600     1.08700
C319        C  0.12944725  0.48261695  0.65109102    -0.06900
C320        C  0.12197033  0.51508783  0.61505044    -0.18000
C321        C  0.10631550  0.49540687  0.57756452     0.10300
C322        C  0.09835452  0.44144913  0.57511256    -0.06800
C323        C  0.10355306  0.41048684  0.61297813    -0.18000
C324        C  0.11858973  0.43056179  0.65090604     0.10300
S325        S  0.09747274  0.54119290  0.53394850    -0.33000
S326        S  0.12355149  0.38746674  0.69773988    -0.33000
H327        H  0.12106849  0.42845719  0.73060725     0.28400
H328        H  0.07171246  0.51698521  0.52171777     0.28300
H329        H  0.12954503  0.55543734  0.61486305     0.18900
H330        H  0.09693957  0.36952473  0.61235439     0.18900
C331        C  0.12523245  0.45905570  0.83358741    -0.06900
C332        C  0.12772219  0.40563917  0.84496723    -0.18000
C333        C  0.11384856  0.38588629  0.88234456     0.10300
C334        C  0.09685462  0.41993551  0.90895687    -0.06800
C335        C  0.09212029  0.47161991  0.89532089    -0.18000
C336        C  0.10546565  0.49136037  0.85737978     0.10300
S337        S  0.12049302  0.31814813  0.89639059    -0.33000
S338        S  0.09730382  0.55822881  0.84134580    -0.33000
H339        H  0.07552551  0.56789260  0.87223905     0.28400
H340        H  0.12216377  0.32750862  0.94354891     0.28300
H341        H  0.14219354  0.37989058  0.82680467     0.18900
H342        H  0.07841508  0.49698235  0.91535389     0.18900
C343        C  0.04133491  0.30211944  0.49569235    -0.06900
C344        C  0.04110439  0.27048777  0.53400057    -0.18000
C345        C  0.02382219  0.22582464  0.53554922     0.10300
C346        C  0.00645464  0.21188723  0.49783639    -0.06800
C347        C  0.00244319  0.24337209  0.96632955    -0.18000
C348        C  0.01825567  0.28973181  0.96409937     0.10300
S349        S  0.53295222  0.17830138  0.57778967    -0.33000
S350        S  0.01014700  0.33247811  0.91795411    -0.33000
H351        H  0.01297971  0.37957826  0.94420436     0.28400
H352        H  0.50538309  0.15834573  0.57764436     0.28300
H353        H  0.05486026  0.27998987  0.56270366     0.18900
H354        H  0.98696535  0.23414719  0.93992204     0.18900
C355        C  0.36421602  0.16351733  0.48703461    -0.06900
C356        C  0.34626851  0.16388067  0.52420336    -0.18000
C357        C  0.32346382  0.19862915  0.52673637     0.11300
C358        C  0.31909520  0.23519613  0.49210307    -0.06800
C359        C  0.34026372  0.23244894  0.95828458    -0.18000
C360        C  0.36244937  0.19629147  0.95738443     0.10300
S361        S  0.30030348  0.19263900  0.57399660    -0.33000
S362        S  0.38509583  0.19544958  0.90887786    -0.33000
H363        H  0.39243845  0.14172198  0.91058863     0.28400
H364        H  0.27578224  0.20832253  0.55076320     0.28300
H365        H  0.35011470  0.13686185  0.55138697     0.18900
H366        H  0.33770279  0.25923229  0.93058216     0.18900
C367        C  0.27240856  0.38544895  0.57222049    -0.06900
C368        C  0.26496867  0.43710331  0.56036479    -0.18000
C369        C  0.25093491  0.47099750  0.59023258     0.10300
C370        C  0.24574353  0.45428849  0.63445140    -0.06800
C371        C  0.25655092  0.40532480  0.64808503    -0.18000
C372        C  0.26965817  0.37064075  0.61740466     0.10300
S373        S  0.23852954  0.53235705  0.56775226    -0.33000
S374        S  0.27940822  0.30652539  0.63676430    -0.33000
H375        H  0.30652812  0.30877297  0.61854600     0.28400
H376        H  0.24218772  0.56196946  0.60799199     0.28300
H377        H  0.26781673  0.44958386  0.52592203     0.18900
H378        H  0.25313594  0.39227961  0.68217725     0.18900
C379        C  0.25139091  0.34284375  0.91618265    -0.06900
C380        C  0.26913967  0.36745844  0.88603578    -0.18000
C381        C  0.25958350  0.40978102  0.86083796     0.10300
C382        C  0.23117644  0.42644147  0.86433354    -0.06800
C383        C  0.21278629  0.39813060  0.89123131    -0.18000
C384        C  0.22259295  0.35632785  0.91689088     0.10300
S385        S  0.28552587  0.44325791  0.82820173    -0.33000
S386        S  0.19797040  0.32372962  0.95253690    -0.33000
H387        H  0.21457202  0.27841429  0.95895311     0.28400
H388        H  0.27386147  0.49392255  0.83381720     0.28300
H389        H  0.29141681  0.35810551  0.88626543     0.18900
H390        H  0.19067442  0.40859522  0.89231503     0.18900
C391        C  0.08313524  0.88118218  0.49558070    -0.06900
C392        C  0.06013830  0.87345649  0.96362391    -0.18000
C393        C  0.03523181  0.90266777  0.96454665     0.10300
C394        C  0.03387607  0.94271378  0.49507576    -0.06800
C395        C  0.05329970  0.94787522  0.53109355    -0.18000
C396        C  0.07806936  0.91817531  0.53145683     0.10300
S397        S  0.01080341  0.89355302  0.91758514    -0.33000
S398        S  0.10270298  0.93154611  0.57737192    -0.33000
H399        H  0.12661050  0.92910240  0.54988545     0.28400
H400        H  0.00164699  0.94635531  0.91692158     0.28300
H401        H  0.06361849  0.84584889  0.93546332     0.18900
H402        H  0.04935875  0.97616370  0.55859326     0.18900
C403        C  0.15492836  0.76865808  0.56961099    -0.06900
C404        C  0.18184960  0.74664310  0.56434923    -0.18000
C405        C  0.19271231  0.71064585  0.59468698     0.10300
C406        C  0.17725977  0.69842607  0.63335511    -0.06800
C407        C  0.15191728  0.72491089  0.64202139    -0.18000
C408        C  0.14021629  0.75942380  0.61018307     0.10300
S409        S  0.22556948  0.67788429  0.58163952    -0.33000
S410        S  0.10577320  0.78712482  0.62063027    -0.33000
H411        H  0.10182224  0.76545225  0.66334953     0.28400
H412        H  0.23224613  0.70623466  0.54304388     0.28300
H413        H  0.19380455  0.75490792  0.53450538     0.18900
H414        H  0.14032881  0.71531437  0.67193870     0.18900
C415        C  0.15172622  0.78421849  0.90762232    -0.06900
C416        C  0.13268412  0.76210745  0.87566939    -0.18000
C417        C  0.14205034  0.72966790  0.83971546     0.10300
C418        C  0.17108376  0.71834406  0.83588160    -0.06800
C419        C  0.19027420  0.74517133  0.86497805    -0.18000
C420        C  0.18092094  0.77816662  0.90054970     0.10300
S421        S  0.11584804  0.70232639  0.80093901    -0.33000
S422        S  0.20722484  0.80945159  0.93700477    -0.33000
H423        H  0.19022074  0.85230981  0.95095369     0.28400
H424        H  0.13363207  0.69991224  0.76326164     0.28300
H425        H  0.11026227  0.76719201  0.88036904     0.18900
H426        H  0.21264585  0.73773556  0.86196940     0.18900
C427        C  0.36080992  0.79360697  0.49525551    -0.06900
C428        C  0.35766370  0.83338626  0.52923791    -0.18000
C429        C  0.37171996  0.88182044  0.52748262     0.10300
C430        C  0.38901064  0.89188893  0.49023339    -0.06800
C431        C  0.39448448  0.85558103  0.96243565    -0.18000
C432        C  0.38010979  0.80714733  0.96215165     0.10300
S433        S  0.36681198  0.92848611  0.57420733    -0.33000
S434        S  0.38487755  0.76336660  0.91362663    -0.33000
H435        H  0.38938685  0.71834726  0.93954581     0.28400
H436        H  0.39306933  0.95350580  0.57189456     0.28300
H437        H  0.34423300  0.82670489  0.55781435     0.18900
H438        H  0.40723173  0.86510165  0.93369555     0.18900
C439        C  0.31013641  0.67216702  0.59096121    -0.06900
C440        C  0.29792341  0.71431597  0.61560441    -0.18000
C441        C  0.28008098  0.70535785  0.65187980     0.10300
C442        C  0.27499264  0.65280476  0.66461152    -0.06800
C443        C  0.28965937  0.61126701  0.64292170    -0.18000
C444        C  0.30695860  0.62026247  0.60616789     0.10300
S445        S  0.26139842  0.76097251  0.67705332    -0.33000
S446        S  0.32383358  0.56367733  0.57984844    -0.33000
H447        H  0.34639190  0.59176282  0.56200494     0.28400
H448        H  0.26673238  0.79694107  0.64286357     0.28300
H449        H  0.30055561  0.75417252  0.60409488     0.18900
H450        H  0.28650567  0.57098972  0.65318847     0.18900
C451        C  0.26851571  0.61229075  0.86083281    -0.06900
C452        C  0.27307916  0.58174646  0.89888237    -0.18000
C453        C  0.29285586  0.59677488  0.93239326     0.10300
C454        C  0.30688234  0.64615473  0.93022958    -0.06800
C455        C  0.30367094  0.67477203  0.89043289    -0.18000
C456        C  0.28493860  0.65812471  0.85560370     0.10300
S457        S  0.29959683  0.54991999  0.97580101    -0.33000
S458        S  0.28029560  0.69870777  0.80691604    -0.33000
H459        H  0.30072570  0.73696822  0.81890405     0.28400
H460        H  0.32844374  0.56203120  0.97961306     0.28300
H461        H  0.26111427  0.54574520  0.90253163     0.18900
H462        H  0.31461199  0.71193095  0.88762034     0.18900
C463        C  0.84979719  0.73357033  0.00263312     0.79500
N464        N  0.84001292  0.70782151  0.46508401    -0.78800
C465        C  0.82454526  0.66296142  0.46999982     0.81900
N466        N  0.81872203  0.64759229  0.51253681    -0.78800
C467        C  0.82976347  0.67023427  0.04930788     0.82000
N468        N  0.84463816  0.71519381  0.04425584    -0.80500
C469        C  0.60784787  0.84275191  0.99241302     0.79500
N470        N  0.61804686  0.83049704  0.45035465    -0.78800
C471        C  0.64062316  0.79797845  0.44808420     0.81900
N472        N  0.65070637  0.77672865  0.48642118    -0.78800
C473        C  0.64064530  0.78733222  0.02809289     0.82000
N474        N  0.61875608  0.82168406  0.03074561    -0.80500
C475        C  0.79643675  0.27284959  0.99739150     0.79500
N476        N  0.78348763  0.28752024  0.45767708    -0.78800
C477        C  0.76401080  0.32649338  0.46098271     0.81900
N478        N  0.76245368  0.35582520  0.49941937    -0.78800
C479        C  0.77809492  0.34817569  0.03505557     0.82000
N480        N  0.79558613  0.30586563  0.03472145    -0.80500
N481        N  0.95358924  0.96916451  0.99948803    -0.37400
N482        N  0.90371039  0.03363038  0.00036375    -0.57900
N483        N  0.93943776  0.12846972  0.99755727    -0.37400
N484        N  0.98919627  0.06402696  0.00382550    -0.57900
C485        C  0.93391085  0.93316511  0.00984926     0.26200
C486        C  0.97886254  0.94890661  0.01115927     0.26200
C487        C  0.91398418  0.14999261  0.00598508     0.26200
C488        C  0.95901164  0.16583693  0.00817546     0.26200
C489        C  0.89146991  0.98600481  0.99253299     0.34800
C490        C  0.88396661  0.07017980  0.99118947     0.34800
C491        C  0.51399878  0.03306851  0.99386730     0.34800
C492        C  0.50581738  0.11701990  0.99495905     0.34800
C493        C  0.94687599  0.88950263  0.02831044    -0.22700
C494        C  0.97531347  0.89940720  0.02901296    -0.22700
C495        C  0.91735039  0.20186389  0.02175423    -0.22700
C496        C  0.94579693  0.21181573  0.02322419    -0.22700
C497        C  0.86369570  0.99222524  0.97890512    -0.23700
C498        C  0.85890177  0.04571457  0.97810213    -0.23700
C499        C  0.53886788  0.05733921  0.98204639    -0.23700
C500        C  0.53369001  0.11067077  0.98293251    -0.23700
C501        C  0.90478687  0.93724533  0.00032026    -0.19100
C502        C  0.51064220  0.97832747  0.99943517    -0.19100
C503        C  0.98834974  0.16037278  0.00228440    -0.19100
C504        C  0.88775133  0.12523085  0.99707841    -0.19100
H505        H  0.93689975  0.85393934  0.03959722     0.13900
H506        H  0.49816948  0.87658345  0.03367085     0.13900
H507        H  0.90098135  0.22979680  0.03093116     0.13900
H508        H  0.95561706  0.24881678  0.03381111     0.13900
H509        H  0.84845074  0.96150020  0.97089163     0.12100
H510        H  0.83917628  0.06445346  0.96922092     0.12100
H511        H  0.55872925  0.03865190  0.97391341     0.12100
H512        H  0.54870044  0.14123581  0.97562786     0.12100
H513        H  0.95029551  0.00385438  0.98233298     0.25400
H514        H  0.94295860  0.09145730  0.98265198     0.25400
C515        C  0.56206466  0.35241301  0.99522094     0.79500
N516        N  0.57223215  0.36536949  0.45582991    -0.78800
C517        C  0.59034806  0.40657760  0.45466423     0.81900
N518        N  0.59821324  0.43212990  0.49382792    -0.78800
C519        C  0.58944852  0.42005165  0.03112006     0.82000
N520        N  0.57095400  0.37922742  0.03354489    -0.80500
O521        O  0.66968721  0.63496380  0.29734987    -0.80900
O522        O  0.66027812  0.55259918  0.18802678    -0.80900
O523        O  0.69286968  0.65585339  0.20205188    -0.80900
O524        O  0.66824151  0.45611997  0.28747023    -0.80900
O525        O  0.69611928  0.61032030  0.13730995    -0.81000
O526        O  0.65038936  0.53490349  0.29660289    -0.80900
O527        O  0.67225643  0.46885695  0.19576445    -0.80900
O528        O  0.71006605  0.67268308  0.29089042    -0.80900
C529        C  0.68479825  0.67528900  0.30328682     1.08800
C530        C  0.65531732  0.50374428  0.18088548     1.08700
C531        C  0.68974730  0.65265308  0.15840655     1.08800
C532        C  0.64876955  0.48620926  0.30253795     1.08700
O533        O  0.69973620  0.50086184  0.34740708    -0.80900
O534        O  0.74319738  0.59103681  0.18732479    -0.81000
O535        O  0.75110671  0.59162590  0.28665295    -0.80900
O536        O  0.73425312  0.47599977  0.20824856    -0.80900
O537        O  0.71135298  0.51139558  0.15345064    -0.80900
O538        O  0.72172678  0.59904064  0.34405332    -0.80900
O539        O  0.72833882  0.46844811  0.29596122    -0.80900
O540        O  0.74842432  0.66783851  0.22326523    -0.80900
Co541      Co  0.68556621  0.56753473  0.31780470     1.51500
Co542      Co  0.70017498  0.57386938  0.19174930     1.51700
Co543      Co  0.72228697  0.61814574  0.24447238     1.51600
Co544      Co  0.70111204  0.47184078  0.24681011     1.51500
O545        O  0.70074996  0.55150160  0.25570996    -1.42800
C546        C  0.71992394  0.47033569  0.33594091     1.08700
C547        C  0.75738879  0.63399718  0.19456329     1.08800
C548        C  0.74675159  0.59767646  0.32870085     1.08700
C549        C  0.73146219  0.48318637  0.16670260     1.08700
C550        C  0.63254498  0.48701249  0.14860859    -0.06900
C551        C  0.62702067  0.51854067  0.11119431    -0.18000
C552        C  0.61120373  0.49936872  0.07381128     0.10300
C553        C  0.60096980  0.44674999  0.07299141    -0.06800
C554        C  0.60443337  0.41700504  0.11207536    -0.18000
C555        C  0.61974799  0.43669261  0.14980802     0.10300
S556        S  0.60525943  0.54412786  0.02827836    -0.33000
S557        S  0.62248852  0.39547356  0.19827227    -0.33000
H558        H  0.62077705  0.43825160  0.22955876     0.28400
H559        H  0.57819582  0.52490853  0.01706456     0.28300
H560        H  0.63626143  0.55757622  0.10992552     0.18900
H561        H  0.59616942  0.37717477  0.11269024     0.18900
C562        C  0.62806680  0.46599831  0.33517251    -0.06900
C563        C  0.62676291  0.41110752  0.34117501    -0.18000
C564        C  0.61406864  0.39021433  0.37917179     0.10300
C565        C  0.60146403  0.42461863  0.41145872    -0.06800
C566        C  0.60078969  0.47885833  0.40391676    -0.18000
C567        C  0.61382941  0.50020922  0.36647936     0.10300
S568        S  0.61708589  0.32003549  0.38660053    -0.33000
S569        S  0.61282060  0.57140438  0.36160571    -0.33000
H570        H  0.60382010  0.58404533  0.40580527     0.28400
H571        H  0.62312114  0.32410397  0.43337558     0.28300
H572        H  0.63747514  0.38433401  0.31783220     0.18900
H573        H  0.59045238  0.50482542  0.42832248     0.18900
C574        C  0.54235913  0.30731481  0.99776514    -0.06900
C575        C  0.54386750  0.27531494  0.03578776    -0.18000
C576        C  0.52739993  0.22975147  0.03835260     0.10300
C577        C  0.50929215  0.21504417  0.00178069    -0.06800
C578        C  0.50478920  0.24981015  0.46218851    -0.18000
C579        C  0.52123793  0.29559951  0.46227196     0.10300
S580        S  0.03174115  0.18098023  0.08532788    -0.33000
S581        S  0.51381495  0.34185447  0.41842115    -0.33000
H582        H  0.51782881  0.38713492  0.44663568     0.28400
H583        H  0.00438324  0.16022543  0.08667889     0.28300
H584        H  0.55833864  0.28528647  0.06345123     0.18900
H585        H  0.48926034  0.24304403  0.43537279     0.18900
C586        C  0.86261980  0.15929251  0.99452923    -0.06900
C587        C  0.84452543  0.16161767  0.03149420    -0.18000
C588        C  0.82149077  0.19581667  0.03200848     0.11300
C589        C  0.81713717  0.22986871  0.99556565    -0.06800
C590        C  0.83814284  0.23178708  0.45209357    -0.18000
C591        C  0.85940631  0.19393966  0.44766428     0.10300
S592        S  0.79803953  0.19271016  0.07921345    -0.33000
S593        S  0.88093771  0.19521726  0.39791673    -0.33000
H594        H  0.88846508  0.14148768  0.39767326     0.28400
H595        H  0.77376186  0.20794336  0.05508334     0.28300
H596        H  0.84844403  0.13662833  0.06006965     0.18900
H597        H  0.83541636  0.26061146  0.42598680     0.18900
C598        C  0.77695992  0.38825525  0.07219377    -0.06900
C599        C  0.76809498  0.43890514  0.05981596    -0.18000
C600        C  0.75428438  0.47250860  0.09009644     0.10300
C601        C  0.75070363  0.45642362  0.13497226    -0.06800
C602        C  0.76423927  0.41012384  0.14925805    -0.18000
C603        C  0.77735496  0.37579523  0.11829536     0.10300
S604        S  0.73974863  0.53213005  0.06725759    -0.33000
S605        S  0.79141925  0.31512152  0.13914092    -0.33000
H606        H  0.81647221  0.31860419  0.11467248     0.28400
H607        H  0.74494167  0.56372896  0.10604546     0.28300
H608        H  0.76924852  0.45031226  0.02480107     0.18900
H609        H  0.76280467  0.39835956  0.18412108     0.18900
C610        C  0.75030704  0.34868715  0.42134783    -0.06900
C611        C  0.76819437  0.37024918  0.38968369    -0.18000
C612        C  0.75933599  0.41186462  0.36313542     0.10300
C613        C  0.73145216  0.43126966  0.36701925    -0.06800
C614        C  0.71301019  0.40726030  0.39675239    -0.18000
C615        C  0.72212280  0.36609833  0.42374192     0.10300
S616        S  0.78546448  0.44041038  0.32754928    -0.33000
S617        S  0.69726165  0.33857528  0.46205602    -0.33000
H618        H  0.71192966  0.29094091  0.46814389     0.28400
H619        H  0.77553486  0.49250056  0.33217757     0.28300
H620        H  0.79012723  0.35841367  0.38894158     0.18900
H621        H  0.69128385  0.42015849  0.39863012     0.18900
C622        C  0.58372200  0.87914103  0.99459059    -0.06900
C623        C  0.56322072  0.87632010  0.45301563    -0.18000
C624        C  0.53955504  0.90869924  0.45009594     0.10300
C625        C  0.53590245  0.94439974  0.99666823    -0.06800
C626        C  0.55647410  0.94901502  0.03106094    -0.18000
C627        C  0.58074194  0.91793473  0.02968182     0.10300
S628        S  0.51892467  0.90517506  0.39829228    -0.33000
S629        S  0.60779058  0.93232229  0.07170121    -0.33000
H630        H  0.63023484  0.92502596  0.04158912     0.28400
H631        H  0.51059826  0.95849479  0.39934549     0.28300
H632        H  0.56788510  0.85001146  0.42445096     0.18900
H633        H  0.55390853  0.97807978  0.05843320     0.18900
C634        C  0.65314682  0.76273769  0.06849092    -0.06900
C635        C  0.68191641  0.75093732  0.06670647    -0.18000
C636        C  0.69451556  0.71766649  0.09746221     0.10300
C637        C  0.67853209  0.69671586  0.13240918    -0.06800
C638        C  0.65029000  0.71177546  0.13697796    -0.18000
C639        C  0.63720793  0.74428203  0.10495170     0.10300
S640        S  0.73080740  0.70083271  0.08870666    -0.33000
S641        S  0.59989033  0.75698913  0.10859297    -0.33000
H642        H  0.59502763  0.72688667  0.14693625     0.28400
H643        H  0.73665753  0.70334918  0.13522548     0.28300
H644        H  0.69453128  0.76558786  0.03952689     0.18900
H645        H  0.63807359  0.69490170  0.16356726     0.18900
C646        C  0.65285120  0.78123226  0.40429171    -0.06900
C647        C  0.63480187  0.76298966  0.36919032    -0.18000
C648        C  0.64523902  0.73332543  0.33228083     0.10300
C649        C  0.67420093  0.72050362  0.33097293    -0.06800
C650        C  0.69255503  0.74417182  0.36324126    -0.18000
C651        C  0.68221302  0.77482822  0.39952517     0.10300
S652        S  0.62052243  0.71128511  0.28877931    -0.33000
S653        S  0.70744700  0.80290175  0.43966983    -0.33000
H654        H  0.69044026  0.84580108  0.45354877     0.28400
H655        H  0.64032540  0.70885136  0.25382547     0.28300
H656        H  0.61229630  0.76895422  0.37185742     0.18900
H657        H  0.71490769  0.73578045  0.36209053     0.18900
C658        C  0.86284304  0.78641998  0.99910330    -0.06900
C659        C  0.85614191  0.82551512  0.03217356    -0.18000
C660        C  0.86867512  0.87546719  0.03279117     0.10300
C661        C  0.88802025  0.88758485  0.99885008    -0.06800
C662        C  0.89687845  0.84744577  0.46194114    -0.18000
C663        C  0.88384087  0.79783935  0.46304846     0.10300
S664        S  0.85952699  0.92105458  0.07846209    -0.33000
S665        S  0.89400850  0.74884275  0.42085154    -0.33000
H666        H  0.89497296  0.70687412  0.45096064     0.28400
H667        H  0.88562326  0.94692670  0.08184696     0.28300
H668        H  0.84132324  0.81680593  0.05844734     0.18900
H669        H  0.91184912  0.85482128  0.43556495     0.18900
C670        C  0.81914634  0.65837018  0.09469010    -0.06900
C671        C  0.81079074  0.70131645  0.12262216    -0.18000
C672        C  0.79310527  0.69439684  0.15939722     0.10300
C673        C  0.78303502  0.64309134  0.16783835    -0.06800
C674        C  0.79500087  0.59962340  0.14425049    -0.18000
C675        C  0.81314925  0.60670643  0.10813725     0.10300
S676        S  0.78137187  0.75246315  0.19106558    -0.33000
S677        S  0.82785153  0.54850938  0.08093477    -0.33000
H678        H  0.85112417  0.57417735  0.06272161     0.28400
H679        H  0.80023590  0.78855054  0.17278974     0.28300
H680        H  0.81606377  0.74106696  0.11332327     0.18900
H681        H  0.78907155  0.55976076  0.15243368     0.18900
C682        C  0.77065926  0.60800455  0.36024912    -0.06900
C683        C  0.77311727  0.57821315  0.39916610    -0.18000
C684        C  0.79326438  0.59068360  0.43283430     0.10300
C685        C  0.80977748  0.63720779  0.42991225    -0.06800
C686        C  0.80883327  0.66413066  0.38896271    -0.18000
C687        C  0.78986067  0.64952027  0.35395460     0.10300
S688        S  0.79728343  0.54408738  0.47712106    -0.33000
S689        S  0.78862039  0.68807728  0.30369787    -0.33000
H690        H  0.81504390  0.71233652  0.31021620     0.28400
H691        H  0.82670177  0.55001340  0.47995288     0.28300
H692        H  0.75933964  0.54464527  0.40319946     0.18900
H693        H  0.82175120  0.69881291  0.38517058     0.18900
C694        C  0.85010140  0.73583588  0.50200049     0.79500
N695        N  0.83952087  0.70663590  0.96546421    -0.78800
C696        C  0.82454024  0.66117793  0.96958491     0.81900
N697        N  0.81930811  0.64396036  0.01186222    -0.78800
C698        C  0.82881613  0.67490211  0.54959046     0.82000
N699        N  0.84409406  0.71925411  0.54397307    -0.80500
C700        C  0.60608825  0.84287907  0.49095942     0.79500
N701        N  0.61859110  0.82857452  0.95140202    -0.78800
C702        C  0.64074765  0.79508418  0.94874264     0.81900
N703        N  0.65148813  0.77449622  0.98699605    -0.78800
C704        C  0.63908538  0.78790914  0.52727779     0.82000
N705        N  0.61654904  0.82106912  0.52945742    -0.80500
C706        C  0.80010214  0.27663711  0.49422189     0.79500
N707        N  0.78053707  0.28351138  0.95993612    -0.78800
C708        C  0.76230865  0.32474077  0.96137333     0.81900
N709        N  0.76144108  0.35632149  0.99865699    -0.78800
C710        C  0.77992370  0.34814844  0.53495395     0.82000
N711        N  0.79883985  0.30790428  0.53271394    -0.80500
N712        N  0.95688711  0.97075140  0.49260530    -0.37400
N713        N  0.90623409  0.03335402  0.49061816    -0.57900
N714        N  0.94087591  0.12936207  0.48719941    -0.37400
N715        N  0.99126345  0.06682604  0.49625989    -0.57900
C716        C  0.93763207  0.93418991  0.50358258     0.26200
C717        C  0.98242634  0.95169980  0.50431775     0.26200
C718        C  0.91505986  0.14972406  0.49466766     0.26200
C719        C  0.95980794  0.16718255  0.49974794     0.26200
C720        C  0.89460818  0.98488960  0.48445437     0.34800
C721        C  0.88620722  0.06868858  0.47945551     0.34800
C722        C  0.51067556  0.03064345  0.48093564     0.34800
C723        C  0.50314501  0.11493897  0.48407855     0.34800
C724        C  0.95117767  0.89137091  0.52246602    -0.22700
C725        C  0.97949874  0.90235123  0.52273697    -0.22700
C726        C  0.91758660  0.20128977  0.51172385    -0.22700
C727        C  0.94586429  0.21226740  0.51494285    -0.22700
C728        C  0.86691411  0.98941453  0.46980904    -0.23700
C729        C  0.86158816  0.04262377  0.46654438    -0.23700
C730        C  0.53562593  0.05461501  0.46918934    -0.23700
C731        C  0.53083682  0.10813720  0.47118238    -0.23700
C732        C  0.90838619  0.93699610  0.49438381    -0.19100
C733        C  0.50718401  0.97589049  0.48649428    -0.19100
C734        C  0.98927187  0.16291464  0.49567408    -0.19100
C735        C  0.88924732  0.12410570  0.48429572    -0.19100
H736        H  0.94167381  0.85562637  0.53430908     0.13900
H737        H  0.49417415  0.87294667  0.51762849     0.13900
H738        H  0.90078335  0.22831616  0.52082135     0.13900
H739        H  0.95511030  0.24926674  0.52692901     0.13900
H740        H  0.85207956  0.95775613  0.46261810     0.12100
H741        H  0.84177464  0.06016272  0.45643616     0.12100
H742        H  0.55531807  0.03552785  0.46064594     0.12100
H743        H  0.54605787  0.13854174  0.46445730     0.12100
H744        H  0.95317679  0.00514275  0.47515766     0.25400
H745        H  0.94509298  0.09276717  0.47184884     0.25400
C746        C  0.56185274  0.34971349  0.49590641     0.79500
N747        N  0.57252839  0.36559270  0.95459875    -0.78800
C748        C  0.59090223  0.40605826  0.95188765     0.81900
N749        N  0.59937296  0.43296493  0.99006901    -0.78800
C750        C  0.58832929  0.41690430  0.53420464     0.82000
N751        N  0.57039732  0.37500900  0.53519588    -0.80500
O752        O  0.66905554  0.63210147  0.79712106    -0.80900
O753        O  0.66029509  0.54915345  0.68848710    -0.80900
O754        O  0.69129266  0.65477809  0.70143104    -0.80900
O755        O  0.67012242  0.45397423  0.78641450    -0.80900
O756        O  0.69470482  0.60883688  0.63696389    -0.81000
O757        O  0.65081783  0.53154454  0.79770208    -0.80900
O758        O  0.67416135  0.46644460  0.69541941    -0.80900
O759        O  0.70874800  0.67204041  0.79016362    -0.80900
C760        C  0.68354194  0.67321855  0.80278588     1.08800
C761        C  0.65617685  0.50002303  0.68146460     1.08700
C762        C  0.68803515  0.65121328  0.65779030     1.08800
C763        C  0.64980493  0.48226257  0.80108174     1.08700
O764        O  0.70070633  0.49950321  0.84714654    -0.80900
O765        O  0.74243496  0.59298569  0.68631686    -0.81000
O766        O  0.75086879  0.59347597  0.78561115    -0.80900
O767        O  0.73604296  0.47747157  0.70825946    -0.80900
O768        O  0.71221312  0.51075016  0.65340938    -0.80900
O769        O  0.72161944  0.59875908  0.84337526    -0.80900
O770        O  0.73006935  0.46978659  0.79599413    -0.80900
O771        O  0.74667432  0.66988149  0.72259073    -0.80900
Co772      Co  0.68581858  0.56565919  0.81772948     1.51500
Co773      Co  0.69979418  0.57289100  0.69143453     1.51700
Co774      Co  0.72147994  0.61849630  0.74369552     1.51600
Co775      Co  0.70293959  0.47138333  0.74653074     1.51500
O776        O  0.70104556  0.55074858  0.75537513    -1.42800
C777        C  0.72102541  0.46937310  0.83553311     1.08700
C778        C  0.75602431  0.63663780  0.69374979     1.08800
C779        C  0.74654444  0.59851998  0.82775083     1.08700
C780        C  0.73273921  0.48341220  0.66665048     1.08700
C781        C  0.63288316  0.48178672  0.65065231    -0.06900
C782        C  0.62380603  0.51538065  0.61633151    -0.18000
C783        C  0.60724101  0.49647775  0.57969149     0.10300
C784        C  0.59964637  0.44234566  0.57663761    -0.06800
C785        C  0.60646299  0.41011628  0.61299195    -0.18000
C786        C  0.62270668  0.42920058  0.64989662     0.10300
S787        S  0.59715985  0.54337291  0.53759676    -0.33000
S788        S  0.63023530  0.38389874  0.69429950    -0.33000
H789        H  0.62722148  0.42267267  0.72891169     0.28400
H790        H  0.57150555  0.51856681  0.52576642     0.28300
H791        H  0.63089507  0.55606615  0.61658794     0.18900
H792        H  0.60034638  0.36887326  0.61166646     0.18900
C793        C  0.62838754  0.45894379  0.83074255    -0.06900
C794        C  0.63226829  0.40631581  0.84363881    -0.18000
C795        C  0.61939600  0.38712462  0.88205165     0.10300
C796        C  0.60189437  0.42089282  0.90795919    -0.06800
C797        C  0.59560022  0.47134520  0.89272621    -0.18000
C798        C  0.60805585  0.49049420  0.85382336     0.10300
S799        S  0.62785968  0.32066715  0.89794969    -0.33000
S800        S  0.59804737  0.55556374  0.83546832    -0.33000
H801        H  0.57621071  0.56458948  0.86639106     0.28400
H802        H  0.62794380  0.33083708  0.94502208     0.28300
H803        H  0.64717042  0.38102607  0.82593748     0.18900
H804        H  0.58135284  0.49622946  0.91218029     0.18900
C805        C  0.54202323  0.30444794  0.49658219    -0.06900
C806        C  0.54470632  0.26781176  0.53119568    -0.18000
C807        C  0.52778349  0.22246018  0.53158968     0.10300
C808        C  0.50784641  0.21277861  0.49622101    -0.06800
C809        C  0.50729639  0.24733369  0.96423987    -0.18000
C810        C  0.52315318  0.29357239  0.96210232     0.10300
S811        S  0.02539660  0.18756987  0.58604838    -0.33000
S812        S  0.51690032  0.33391981  0.91368420    -0.33000
H813        H  0.51868222  0.38218510  0.93852951     0.28400
H814        H  0.99776485  0.16802619  0.58273296     0.28300
H815        H  0.56042199  0.27407111  0.55779919     0.18900
H816        H  0.49300266  0.23657009  0.93651760     0.18900
C817        C  0.86380384  0.15772269  0.48247284    -0.06900
C818        C  0.84595016  0.15847552  0.51977357    -0.18000
C819        C  0.82439640  0.19575635  0.52384589     0.11300
C820        C  0.82096551  0.23391512  0.49034428    -0.06800
C821        C  0.83461604  0.22586262  0.95779205    -0.18000
C822        C  0.85711996  0.19048067  0.95667063     0.10300
S823        S  0.80189150  0.19194239  0.57217624    -0.33000
S824        S  0.87852718  0.18808057  0.90673603    -0.33000
H825        H  0.88649257  0.13479340  0.90967945     0.28400
H826        H  0.77748400  0.21020501  0.55011984     0.28300
H827        H  0.84931887  0.13059136  0.54644725     0.18900
H828        H  0.83123188  0.25153842  0.92951448     0.18900
C829        C  0.77863679  0.38815049  0.57226892    -0.06900
C830        C  0.76926806  0.43849191  0.55979891    -0.18000
C831        C  0.75504572  0.47170155  0.58986549     0.10300
C832        C  0.75178690  0.45603938  0.63487663    -0.06800
C833        C  0.76563110  0.41000012  0.64930170    -0.18000
C834        C  0.77903545  0.37579824  0.61837629     0.10300
S835        S  0.73948369  0.53021783  0.56663701    -0.33000
S836        S  0.79373952  0.31553598  0.63907200    -0.33000
H837        H  0.81843671  0.31925036  0.61373687     0.28400
H838        H  0.74513823  0.56284060  0.60471536     0.28300
H839        H  0.77026074  0.44977174  0.52474058     0.18900
H840        H  0.76432970  0.39847108  0.68424458     0.18900
C841        C  0.74844121  0.34502156  0.92103063    -0.06900
C842        C  0.76607601  0.36181436  0.88690652    -0.18000
C843        C  0.75825637  0.40370573  0.85976213     0.10300
C844        C  0.73154816  0.42802387  0.86552964    -0.06800
C845        C  0.71298254  0.40768587  0.89706266    -0.18000
C846        C  0.72108715  0.36638409  0.92456365     0.10300
S847        S  0.78447192  0.42665208  0.82145949    -0.33000
S848        S  0.69640808  0.34486943  0.96597098    -0.33000
H849        H  0.70928006  0.29562099  0.97285632     0.28400
H850        H  0.77906005  0.48061993  0.83016196     0.28300
H851        H  0.78736543  0.34654244  0.88490175     0.18900
H852        H  0.69200054  0.42403788  0.90045640     0.18900
C853        C  0.58092673  0.87757624  0.49169421    -0.06900
C854        C  0.56308764  0.87485031  0.96013818    -0.18000
C855        C  0.53960670  0.90785039  0.96024410     0.10300
C856        C  0.53269939  0.94236108  0.48712110    -0.06800
C857        C  0.54994061  0.94353239  0.52607467    -0.18000
C858        C  0.57417216  0.91222157  0.52858528     0.10300
S859        S  0.51530375  0.90191546  0.91280105    -0.33000
S860        S  0.59596952  0.92060966  0.57873229    -0.33000
H861        H  0.62137757  0.92079972  0.55493598     0.28400
H862        H  0.50778499  0.95565922  0.91263469     0.28300
H863        H  0.56533362  0.84578226  0.93268814     0.18900
H864        H  0.54466160  0.96973753  0.55442919     0.18900
C865        C  0.65168704  0.76238923  0.56759293    -0.06900
C866        C  0.67990493  0.74661276  0.56387359    -0.18000
C867        C  0.69238513  0.71321807  0.59460581     0.10300
C868        C  0.67691433  0.69521019  0.63129588    -0.06800
C869        C  0.64950558  0.71437042  0.63802012    -0.18000
C870        C  0.63661502  0.74799495  0.60645952     0.10300
S871        S  0.72814935  0.69356437  0.58443083    -0.33000
S872        S  0.60057555  0.76811112  0.61475480    -0.33000
H873        H  0.59898213  0.75319473  0.66015823     0.28400
H874        H  0.73531423  0.70141783  0.63023979     0.28300
H875        H  0.69232541  0.75879353  0.53557591     0.18900
H876        H  0.63763662  0.70024333  0.66619666     0.18900
C877        C  0.65198886  0.77750121  0.90473563    -0.06900
C878        C  0.63329843  0.75638378  0.87179732    -0.18000
C879        C  0.64325975  0.72702499  0.83448393     0.10300
C880        C  0.67249104  0.71772460  0.83056638    -0.06800
C881        C  0.69119527  0.74410542  0.86071467    -0.18000
C882        C  0.68123763  0.77404170  0.89761960     0.10300
S883        S  0.61763654  0.70054962  0.79421493    -0.33000
S884        S  0.70687189  0.80469541  0.93566841    -0.33000
H885        H  0.68927727  0.84624904  0.95059320     0.28400
H886        H  0.63580250  0.70029464  0.75701952     0.28300
H887        H  0.61080056  0.75994944  0.87655707     0.18900
H888        H  0.71368658  0.73822165  0.85761762     0.18900
C889        C  0.86460634  0.78747603  0.49773853    -0.06900
C890        C  0.85916113  0.82769618  0.53052289    -0.18000
C891        C  0.87277727  0.87666758  0.53012546     0.10300
C892        C  0.89186636  0.88695346  0.49534670    -0.06800
C893        C  0.89368837  0.84958384  0.96448603    -0.18000
C894        C  0.88165468  0.79912892  0.96450860     0.10300
S895        S  0.86532883  0.92368181  0.57556425    -0.33000
S896        S  0.89266431  0.75208788  0.92126934    -0.33000
H897        H  0.89458701  0.70929793  0.95042912     0.28400
H898        H  0.89233176  0.94619180  0.57816108     0.28300
H899        H  0.84438932  0.82074316  0.55728153     0.18900
H900        H  0.90865243  0.85863338  0.93851791     0.18900
C901        C  0.81800777  0.66352727  0.59486902    -0.06900
C902        C  0.80872608  0.70635927  0.62206705    -0.18000
C903        C  0.79093237  0.69879724  0.65865821     0.10300
C904        C  0.78156432  0.64703460  0.66725006    -0.06800
C905        C  0.79426982  0.60403041  0.64421107    -0.18000
C906        C  0.81268499  0.61173533  0.60865748     0.10300
S907        S  0.77835863  0.75627693  0.69021204    -0.33000
S908        S  0.82873176  0.55406921  0.58273137    -0.33000
H909        H  0.85177340  0.58084824  0.56494215     0.28400
H910        H  0.79612053  0.79354229  0.67092272     0.28300
H911        H  0.81351552  0.74621180  0.61241919     0.18900
H912        H  0.78886072  0.56394892  0.65254900     0.18900
C913        C  0.77032788  0.60937710  0.85916230    -0.06900
C914        C  0.77482153  0.57611676  0.89549016    -0.18000
C915        C  0.79474183  0.58862581  0.92953789     0.10300
C916        C  0.80938462  0.63748895  0.92908067    -0.06800
C917        C  0.80622573  0.66856270  0.89057526    -0.18000
C918        C  0.78699205  0.65500981  0.85572799     0.10300
S919        S  0.80059932  0.53966800  0.97146342    -0.33000
S920        S  0.78176199  0.69954770  0.80978533    -0.33000
H921        H  0.80540863  0.73161715  0.81918414     0.28400
H922        H  0.82968231  0.54950197  0.97530734     0.28300
H923        H  0.76259783  0.54016489  0.89744600     0.18900
H924        H  0.81744785  0.70556704  0.88891671     0.18900
loop_ 
_geom_bond_atom_site_label_1 
_geom_bond_atom_site_label_2 
_geom_bond_distance 
_geom_bond_site_symmetry_2 
_ccdc_geom_bond_type 
C1            N6   1.358       .  A
C1          N233   1.365   1_554  A
C1          C196   1.495   1_554  S
N2            C3   1.362       .  A
N2          C232   1.359       .  A
C3            N4   1.358       .  A
C3          C223   1.486       .  S
N4          C236   1.357       .  A
C5            N6   1.353       .  A
C5          N235   1.355       .  A
C5          C208   1.474       .  S
C7           N12   1.359   1_556  A
C7          N239   1.362       .  A
C7          C160   1.474       .  S
N8            C9   1.351       .  A
N8          C238   1.359       .  A
C9           N10   1.352       .  A
C9          C184   1.471       .  S
N10         C242   1.358       .  A
C11          N12   1.353       .  A
C11         N241   1.356   1_554  A
C11         C172   1.481       .  S
C13          N18   1.364   1_556  A
C13         N245   1.363       .  A
C13         C127   1.470       .  S
N14          C15   1.355       .  A
N14         C244   1.364       .  A
C15          N16   1.340       .  A
C15         C148   1.459       .  S
N16         C248   1.344       .  A
C17          N18   1.357       .  A
C17         N247   1.346   1_554  A
C17         C136   1.473       .  S
N19          C24   1.350   1_556  A
N19          C23   1.353   1_556  A
N19          H51   1.039   1_565  S
N20          C27   1.352   1_544  A
N20          C28   1.349   1_554  A
N21          C26   1.353   1_556  A
N21          C25   1.349   1_556  A
N21          H52   1.038       .  S
N22         C491   1.348   1_554  A
N22         C492   1.350   1_554  A
C23          C31   1.387       .  A
C23          C39   1.414   1_554  A
C24          C32   1.387       .  A
C24         C502   1.413   1_554  A
C25          C33   1.389       .  A
C25          C42   1.413   1_554  A
C26          C41   1.412       .  A
C26          C34   1.386       .  A
C27          C39   1.412       .  A
C27          C35   1.385       .  A
C28          C42   1.414       .  A
C28          C36   1.387       .  A
C29         N484   1.347   1_456  A
C29          C37   1.388       .  A
C29          C40   1.410   1_546  A
C30         N484   1.351   1_456  A
C30          C38   1.385       .  A
C30         C503   1.409   1_456  A
C31          C32   1.375       .  A
C31          H43   1.082       .  S
C32         H506   1.082       .  S
C33          C34   1.374       .  A
C33          H45   1.082       .  S
C34          H46   1.082       .  S
C35          C36   1.373   1_565  A
C35          H47   1.082       .  S
C36          H48   1.082       .  S
C37          C38   1.372       .  A
C37          H49   1.082       .  S
C38          H50   1.082       .  S
C39         C199   1.490       .  S
C40         C163   1.476       .  S
C40         C486   1.410   1_455  A
C41         C577   1.485       .  S
C41         C492   1.409   1_554  A
C42         C124   1.478       .  S
H44         C494   1.082       .  S
C53          N58   1.364   1_556  A
C53         N285   1.359       .  A
C53         C112   1.485       .  S
N54          C55   1.352       .  A
N54         C284   1.356       .  A
C55          N56   1.357       .  A
C55         C103   1.470       .  S
N56         C288   1.359       .  A
C57          N58   1.362       .  A
C57         N287   1.358   1_554  A
C57          C91   1.488       .  S
O59          C67   1.257       .  A
O59         Co79   1.977       .  S
O60          C68   1.270       .  A
O60         Co80   1.974       .  S
O61          C69   1.293       .  A
O61         Co81   2.103       .  S
O62          C70   1.275       .  A
O62         Co82   2.030       .  S
O63          C69   1.262       .  A
O63         Co80   1.876       .  S
O64          C70   1.255       .  A
O64         Co79   1.951       .  S
O65          C68   1.277       .  A
O65         Co82   2.024       .  S
O66          C67   1.259       .  A
O66         Co81   1.991       .  S
C67         C187   1.475       .  S
C68          C88   1.487       .  S
C69         C175   1.462       .  S
C70         C100   1.490       .  S
O71          C84   1.274       .  A
O71         Co79   2.030       .  S
O72          C85   1.294       .  A
O72         Co80   2.107       .  S
O73          C86   1.267       .  A
O73         Co81   1.966       .  S
O74          C87   1.252       .  A
O74         Co82   1.965       .  S
O75          C87   1.258       .  A
O75         Co80   1.997       .  S
O76          C86   1.278       .  A
O76         Co79   2.026       .  S
O77          C84   1.252       .  A
O77         Co82   1.935       .  S
O78          C85   1.261       .  A
O78         Co81   1.891       .  S
Co79         O83   2.018       .  S
Co80         O83   1.989       .  S
Co81         O83   2.007       .  S
Co82         O83   2.023       .  S
C84         C151   1.471       .  S
C85         C211   1.481       .  S
C86         C220   1.469       .  S
C87         C139   1.472       .  S
C88          C89   1.405       .  A
C88          C93   1.415       .  A
C89          C90   1.401       .  A
C89          H98   1.084       .  S
C90          C91   1.417       .  A
C90          S94   1.804       .  S
C91          C92   1.405       .  A
C92          C93   1.402       .  A
C92          H99   1.084       .  S
C93          S95   1.800       .  S
S94          H97   1.407       .  S
S95          H96   1.404       .  S
C100        C101   1.408       .  A
C100        C105   1.422       .  A
C101        C102   1.399       .  A
C101        H110   1.084       .  S
C102        C103   1.410       .  A
C102        S106   1.803       .  S
C103        C104   1.398       .  A
C104        C105   1.401       .  A
C104        H111   1.083       .  S
C105        S107   1.812       .  S
S106        H109   1.406       .  S
S107        H108   1.407       .  S
C112        C113   1.406   1_556  A
C112        C348   1.417       .  A
C113        C114   1.401       .  A
C113        H122   1.084       .  S
C114        C115   1.414       .  A
C114        S580   1.804       .  S
C115        C503   1.490   1_455  S
C115        C347   1.401   1_554  A
C116        C117   1.397       .  A
C116        C346   1.398       .  A
C116        H123   1.084   1_455  S
C117        C343   1.421       .  A
C117        S119   1.803       .  S
S118        C576   1.804       .  S
S118        H121   1.405       .  S
S119        H120   1.407       .  S
C124        C125   1.400   1_556  A
C124        C360   1.411       .  A
C125        C126   1.395       .  A
C125        H134   1.084       .  S
C126        C127   1.413   1_554  A
C126        S130   1.801       .  S
C127        C359   1.403       .  A
C128        C129   1.395       .  A
C128        C358   1.403       .  A
C128        H135   1.084       .  S
C129        C355   1.410       .  A
C129        S131   1.804       .  S
S130        H133   1.406       .  S
S131        H132   1.406       .  S
C136        C137   1.408       .  A
C136        C141   1.407       .  A
C137        C138   1.390       .  A
C137        H146   1.085       .  S
C138        C139   1.412       .  A
C138        S142   1.804       .  S
C139        C140   1.408       .  A
C140        C141   1.395       .  A
C140        H147   1.084       .  S
C141        S143   1.795       .  S
S142        H145   1.395       .  S
S143        H144   1.407       .  S
C148        C149   1.398       .  A
C148        C153   1.412       .  A
C149        C150   1.396       .  A
C149        H158   1.084       .  S
C150        C151   1.419       .  A
C150        S154   1.806       .  S
C151        C152   1.402       .  A
C152        C153   1.394       .  A
C152        H159   1.084       .  S
C153        S155   1.805       .  S
S154        H157   1.403       .  S
S155        H156   1.407       .  S
C160        C165   1.416   1_556  A
C160        C392   1.405       .  A
C161        C162   1.393       .  A
C161        C391   1.406       .  A
C161        H170   1.084       .  S
C162        C394   1.408       .  A
C162        S166   1.805       .  S
C163        C164   1.399       .  A
C163        C393   1.410   1_554  A
C164        C165   1.395       .  A
C164        H171   1.084       .  S
C165        S167   1.803       .  S
S166        H169   1.405       .  S
S167        H168   1.407       .  S
C172        C173   1.403       .  A
C172        C177   1.421       .  A
C173        C174   1.389       .  A
C173        H182   1.082       .  S
C174        C175   1.406       .  A
C174        S178   1.808       .  S
C175        C176   1.400       .  A
C176        C177   1.407       .  A
C176        H183   1.083       .  S
C177        S179   1.807       .  S
S178        H181   1.406       .  S
S179        H180   1.407       .  S
C184        C185   1.404       .  A
C184        C189   1.411       .  A
C185        C186   1.399       .  A
C185        H194   1.084       .  S
C186        C187   1.413       .  A
C186        S190   1.803       .  S
C187        C188   1.404       .  A
C188        C189   1.395       .  A
C188        H195   1.084       .  S
C189        S191   1.804       .  S
S190        H193   1.408       .  S
S191        H192   1.407       .  S
C196        C197   1.411   1_556  A
C196        C432   1.418       .  A
C197        C198   1.398       .  A
C197        H206   1.083       .  S
C198        C199   1.409   1_554  A
C198        S202   1.805       .  S
C199        C431   1.404       .  A
C200        C201   1.401       .  A
C200        C430   1.403       .  A
C200        H207   1.084       .  S
C201        C427   1.417       .  A
C201        S203   1.802       .  S
S202        H205   1.405       .  S
S203        H204   1.407       .  S
C208        C209   1.403       .  A
C208        C213   1.409       .  A
C209        C210   1.402       .  A
C209        H218   1.083       .  S
C210        C211   1.418       .  A
C210        S214   1.810       .  S
C211        C212   1.404       .  A
C212        C213   1.396       .  A
C212        H219   1.084       .  S
C213        S215   1.801       .  S
S214        H217   1.407       .  S
S215        H216   1.406       .  S
C220        C221   1.399       .  A
C220        C225   1.410       .  A
C221        C222   1.399       .  A
C221        H230   1.084       .  S
C222        C223   1.418       .  A
C222        S226   1.800       .  S
C223        C224   1.404       .  A
C224        C225   1.398       .  A
C224        H231   1.082       .  S
C225        S227   1.804       .  S
S226        H229   1.408       .  S
S227        H228   1.407       .  S
C232        N237   1.359       .  A
C232        C427   1.490       .  S
N233        C234   1.367       .  A
C234        N235   1.358   1_556  A
C234        C454   1.497       .  S
C236        N237   1.357       .  A
C236        C439   1.474       .  S
C238        N243   1.361       .  A
C238        C391   1.474       .  S
N239        C240   1.357       .  A
C240        N241   1.351       .  A
C240        C415   1.475       .  S
C242        N243   1.357       .  A
C242        C403   1.491       .  S
C244        N249   1.365       .  A
C244        C358   1.471       .  S
N245        C246   1.355       .  A
C246        N247   1.343       .  A
C246        C379   1.457       .  S
C248        N249   1.358       .  A
C248        C367   1.470       .  S
N250        C255   1.351       .  A
N250        C254   1.354       .  A
N250        H282   1.038   1_565  S
N251        C258   1.352   1_545  A
N251        C259   1.349       .  A
N252        C257   1.355       .  A
N252        C256   1.350       .  A
N252        H283   1.039       .  S
N253        C722   1.349       .  A
N253        C723   1.352       .  A
C254        C262   1.387       .  A
C254        C270   1.416       .  A
C255        C733   1.414       .  A
C255        C263   1.387       .  A
C256        C264   1.388       .  A
C256        C273   1.415       .  A
C257        C272   1.415       .  A
C257        C265   1.386       .  A
C258        C270   1.412       .  A
C258        C266   1.385       .  A
C259        C273   1.413       .  A
C259        C267   1.388       .  A
C260        N715   1.347   1_455  A
C260        C268   1.388       .  A
C260        C271   1.408   1_545  A
C261        N715   1.349   1_455  A
C261        C269   1.385       .  A
C261        C734   1.406   1_455  A
C262        C263   1.374       .  A
C262        H274   1.082       .  S
C263        H737   1.082       .  S
C264        C265   1.376       .  A
C264        H276   1.082       .  S
C265        H277   1.082       .  S
C266        C267   1.374   1_565  A
C266        H278   1.082       .  S
C267        H279   1.082       .  S
C268        C269   1.372       .  A
C268        H280   1.082       .  S
C269        H281   1.082       .  S
C270        C430   1.492       .  S
C271        C394   1.475       .  S
C271        C717   1.410   1_455  A
C272        C808   1.494       .  S
C272        C723   1.411       .  A
C273        C355   1.478       .  S
H275        C725   1.082       .  S
C284        N289   1.364       .  A
C284        C343   1.486       .  S
N285        C286   1.355       .  A
C286        N287   1.356       .  A
C286        C334   1.471       .  S
C288        N289   1.363       .  A
C288        C322   1.489       .  S
O290        C298   1.256       .  A
O290       Co310   1.974       .  S
O291        C299   1.270       .  A
O291       Co311   1.976       .  S
O292        C300   1.299       .  A
O292       Co312   2.118       .  S
O293        C301   1.276       .  A
O293       Co313   2.037       .  S
O294        C300   1.261       .  A
O294       Co311   1.872       .  S
O295        C301   1.255       .  A
O295       Co310   1.950       .  S
O296        C299   1.277       .  A
O296       Co313   2.024       .  S
O297        C298   1.261       .  A
O297       Co312   2.001       .  S
C298        C418   1.479       .  S
C299        C319   1.490       .  S
C300        C406   1.472       .  S
C301        C331   1.492       .  S
O302        C315   1.274       .  A
O302       Co310   2.038       .  S
O303        C316   1.294       .  A
O303       Co311   2.104       .  S
O304        C317   1.268       .  A
O304       Co312   1.973       .  S
O305        C318   1.250       .  A
O305       Co313   1.959       .  S
O306        C318   1.258       .  A
O306       Co311   2.000       .  S
O307        C317   1.278       .  A
O307       Co310   2.027       .  S
O308        C315   1.249       .  A
O308       Co313   1.933       .  S
O309        C316   1.263       .  A
O309       Co312   1.889       .  S
Co310       O314   2.021       .  S
Co311       O314   1.993       .  S
Co312       O314   2.020       .  S
Co313       O314   2.028       .  S
C315        C382   1.471       .  S
C316        C442   1.478       .  S
C317        C451   1.479       .  S
C318        C370   1.469       .  S
C319        C320   1.406       .  A
C319        C324   1.416       .  A
C320        C321   1.403       .  A
C320        H329   1.084       .  S
C321        C322   1.417       .  A
C321        S325   1.804       .  S
C322        C323   1.404       .  A
C323        C324   1.401       .  A
C323        H330   1.084       .  S
C324        S326   1.801       .  S
S325        H328   1.407       .  S
S326        H327   1.405       .  S
C331        C332   1.408       .  A
C331        C336   1.424       .  A
C332        C333   1.401       .  A
C332        H341   1.083       .  S
C333        C334   1.410       .  A
C333        S337   1.803       .  S
C334        C335   1.398       .  A
C335        C336   1.402       .  A
C335        H342   1.083       .  S
C336        S338   1.812       .  S
S337        H340   1.406       .  S
S338        H339   1.406       .  S
C343        C344   1.407       .  A
C344        C345   1.401       .  A
C344        H353   1.084       .  S
C345        C346   1.412       .  A
C345        S811   1.804       .  S
C346        C734   1.485   1_455  S
C347        C348   1.399       .  A
C347        H354   1.084   1_455  S
C348        S350   1.803       .  S
S349        C807   1.804       .  S
S349        H352   1.405       .  S
S350        H351   1.407       .  S
C355        C356   1.400       .  A
C356        C357   1.396       .  A
C356        H365   1.084       .  S
C357        C358   1.414       .  A
C357        S361   1.801       .  S
C359        C360   1.395       .  A
C359        H366   1.084       .  S
C360        S362   1.805       .  S
S361        H364   1.406       .  S
S362        H363   1.406       .  S
C367        C368   1.407       .  A
C367        C372   1.405       .  A
C368        C369   1.389       .  A
C368        H377   1.085       .  S
C369        C370   1.411       .  A
C369        S373   1.803       .  S
C370        C371   1.409       .  A
C371        C372   1.395       .  A
C371        H378   1.084       .  S
C372        S374   1.795       .  S
S373        H376   1.394       .  S
S374        H375   1.407       .  S
C379        C380   1.397       .  A
C379        C384   1.411       .  A
C380        C381   1.395       .  A
C380        H389   1.085       .  S
C381        C382   1.418       .  A
C381        S385   1.805       .  S
C382        C383   1.403       .  A
C383        C384   1.396       .  A
C383        H390   1.084       .  S
C384        S386   1.804       .  S
S385        H388   1.403       .  S
S386        H387   1.407       .  S
C391        C396   1.415       .  A
C392        C393   1.395       .  A
C392        H401   1.084       .  S
C393        S397   1.804       .  S
C394        C395   1.401       .  A
C395        C396   1.396       .  A
C395        H402   1.084       .  S
C396        S398   1.802       .  S
S397        H400   1.406       .  S
S398        H399   1.407       .  S
C403        C404   1.404       .  A
C403        C408   1.422       .  A
C404        C405   1.391       .  A
C404        H413   1.082       .  S
C405        C406   1.410       .  A
C405        S409   1.808       .  S
C406        C407   1.401       .  A
C407        C408   1.411       .  A
C407        H414   1.083       .  S
C408        S410   1.807       .  S
S409        H412   1.406       .  S
S410        H411   1.407       .  S
C415        C416   1.402       .  A
C415        C420   1.414       .  A
C416        C417   1.399       .  A
C416        H425   1.084       .  S
C417        C418   1.415       .  A
C417        S421   1.803       .  S
C418        C419   1.405       .  A
C419        C420   1.399       .  A
C419        H426   1.084       .  S
C420        S422   1.805       .  S
S421        H424   1.407       .  S
S422        H423   1.407       .  S
C427        C428   1.409       .  A
C428        C429   1.400       .  A
C428        H437   1.084       .  S
C429        C430   1.413       .  A
C429        S433   1.806       .  S
C431        C432   1.404       .  A
C431        H438   1.084       .  S
C432        S434   1.801       .  S
S433        H436   1.404       .  S
S434        H435   1.407       .  S
C439        C440   1.403       .  A
C439        C444   1.411       .  A
C440        C441   1.401       .  A
C440        H449   1.083       .  S
C441        C442   1.416       .  A
C441        S445   1.809       .  S
C442        C443   1.404       .  A
C443        C444   1.396       .  A
C443        H450   1.084       .  S
C444        S446   1.801       .  S
S445        H448   1.407       .  S
S446        H447   1.406       .  S
C451        C452   1.398       .  A
C451        C456   1.413       .  A
C452        C453   1.399       .  A
C452        H461   1.084       .  S
C453        C454   1.422       .  A
C453        S457   1.798       .  S
C454        C455   1.406       .  A
C455        C456   1.405       .  A
C455        H462   1.082       .  S
C456        S458   1.804       .  S
S457        H460   1.408       .  S
S458        H459   1.406       .  S
C463        N695   1.359   1_554  A
C463        N468   1.354       .  A
C463        C658   1.483   1_554  S
N464        C694   1.363       .  A
N464        C465   1.367       .  A
C465        N466   1.359       .  A
C465        C685   1.499       .  S
N466        C698   1.357       .  A
C467        N697   1.360       .  A
C467        N468   1.354       .  A
C467        C670   1.479       .  S
C469        N701   1.359       .  A
C469        N474   1.361   1_556  A
C469        C622   1.471       .  S
N470        C700   1.362       .  A
N470        C471   1.353       .  A
C471        N472   1.349       .  A
C471        C646   1.476       .  S
N472        C704   1.356       .  A
C473        N703   1.356   1_554  A
C473        N474   1.357       .  A
C473        C634   1.479       .  S
C475        N707   1.364       .  A
C475        N480   1.363   1_556  A
C475        C589   1.466       .  S
N476        C706   1.362       .  A
N476        C477   1.354       .  A
C477        N478   1.340       .  A
C477        C610   1.458       .  S
N478        C710   1.347       .  A
C479        N709   1.346   1_554  A
C479        N480   1.355       .  A
C479        C598   1.472       .  S
N481        C486   1.350   1_556  A
N481        C485   1.352   1_556  A
N481        H513   1.038   1_565  S
N482        C489   1.351   1_544  A
N482        C490   1.347   1_554  A
N483        C488   1.354   1_556  A
N483        C487   1.350   1_556  A
N483        H514   1.037       .  S
C485        C493   1.387       .  A
C485        C501   1.413       .  A
C486        C494   1.386       .  A
C487        C495   1.388       .  A
C487        C504   1.414   1_554  A
C488        C503   1.414       .  A
C488        C496   1.386       .  A
C489        C501   1.410   1_556  A
C489        C497   1.384       .  A
C490        C504   1.411       .  A
C490        C498   1.388       .  A
C491        C499   1.388       .  A
C491        C502   1.410   1_545  A
C492        C500   1.385       .  A
C493        C494   1.375       .  A
C493        H505   1.082       .  S
C495        C496   1.376       .  A
C495        H507   1.082       .  S
C496        H508   1.082       .  S
C497        C498   1.374   1_565  A
C497        H509   1.082       .  S
C498        H510   1.082       .  S
C499        C500   1.372       .  A
C499        H511   1.082       .  S
C500        H512   1.082       .  S
C501        C661   1.489   1_554  S
C502        C625   1.477       .  S
C504        C586   1.475       .  S
C515        N747   1.357       .  A
C515        N520   1.363   1_556  A
C515        C574   1.483       .  S
N516        C746   1.360       .  A
N516        C517   1.356       .  A
C517        N518   1.355       .  A
C517        C565   1.474       .  S
N518        C750   1.356       .  A
C519        N749   1.357   1_554  A
C519        N520   1.362       .  A
C519        C553   1.488       .  S
O521        C529   1.256       .  A
O521       Co541   1.974       .  S
O522        C530   1.270       .  A
O522       Co542   1.973       .  S
O523        C531   1.295       .  A
O523       Co543   2.110       .  S
O524        C532   1.274       .  A
O524       Co544   2.033       .  S
O525        C531   1.261       .  A
O525       Co542   1.886       .  S
O526        C532   1.253       .  A
O526       Co541   1.952       .  S
O527        C530   1.278       .  A
O527       Co544   2.022       .  S
O528        C529   1.262       .  A
O528       Co543   2.006       .  S
C529        C649   1.478       .  S
C530        C550   1.484       .  S
C531        C637   1.469       .  S
C532        C562   1.490       .  S
O533        C546   1.274       .  A
O533       Co541   2.034       .  S
O534        C547   1.291       .  A
O534       Co542   2.098       .  S
O535        C548   1.266       .  A
O535       Co543   1.969       .  S
O536        C549   1.251       .  A
O536       Co544   1.963       .  S
O537        C549   1.257       .  A
O537       Co542   1.992       .  S
O538        C548   1.280       .  A
O538       Co541   2.029       .  S
O539        C546   1.252       .  A
O539       Co544   1.933       .  S
O540        C547   1.264       .  A
O540       Co543   1.897       .  S
Co541       O545   2.010       .  S
Co542       O545   1.988       .  S
Co543       O545   2.014       .  S
Co544       O545   2.026       .  S
C546        C613   1.470       .  S
C547        C673   1.485       .  S
C548        C682   1.477       .  S
C549        C601   1.469       .  S
C550        C551   1.404       .  A
C550        C555   1.414       .  A
C551        C552   1.400       .  A
C551        H560   1.084       .  S
C552        C553   1.418       .  A
C552        S556   1.804       .  S
C553        C554   1.405       .  A
C554        C555   1.400       .  A
C554        H561   1.084       .  S
C555        S557   1.800       .  S
S556        H559   1.407       .  S
S557        H558   1.404       .  S
C562        C563   1.408       .  A
C562        C567   1.425       .  A
C563        C564   1.401       .  A
C563        H572   1.084       .  S
C564        C565   1.411       .  A
C564        S568   1.802       .  S
C565        C566   1.398       .  A
C566        C567   1.399       .  A
C566        H573   1.083       .  S
C567        S569   1.813       .  S
S568        H571   1.407       .  S
S569        H570   1.407       .  S
C574        C575   1.406   1_556  A
C574        C810   1.418       .  A
C575        C576   1.400       .  A
C575        H584   1.084       .  S
C576        C577   1.412       .  A
C577        C809   1.400   1_554  A
C578        C808   1.401       .  A
C578        C579   1.399       .  A
C578        H585   1.084       .  S
C579        C805   1.417       .  A
C579        S581   1.803       .  S
S580        H583   1.405       .  S
S581        H582   1.407       .  S
C586        C587   1.400   1_556  A
C586        C822   1.410       .  A
C587        C588   1.395       .  A
C587        H596   1.084       .  S
C588        C589   1.412   1_554  A
C588        S592   1.802       .  S
C589        C821   1.402       .  A
C590        C820   1.404       .  A
C590        C591   1.396       .  A
C590        H597   1.084       .  S
C591        C817   1.412       .  A
C591        S593   1.805       .  S
S592        H595   1.407       .  S
S593        H594   1.406       .  S
C598        C599   1.406       .  A
C598        C603   1.407       .  A
C599        C600   1.387       .  A
C599        H608   1.084       .  S
C600        C601   1.411       .  A
C600        S604   1.805       .  S
C601        C602   1.409       .  A
C602        C603   1.395       .  A
C602        H609   1.084       .  S
C603        S605   1.797       .  S
S604        H607   1.395       .  S
S605        H606   1.407       .  S
C610        C611   1.398       .  A
C610        C615   1.412       .  A
C611        C612   1.394       .  A
C611        H620   1.085       .  S
C612        C613   1.418       .  A
C612        S616   1.806       .  S
C613        C614   1.403       .  A
C614        C615   1.396       .  A
C614        H621   1.084       .  S
C615        S617   1.804       .  S
S616        H619   1.403       .  S
S617        H618   1.407       .  S
C622        C854   1.404       .  A
C622        C627   1.414   1_556  A
C623        C853   1.408       .  A
C623        C624   1.394       .  A
C623        H632   1.084       .  S
C624        C856   1.407       .  A
C624        S628   1.804       .  S
C625        C855   1.410       .  A
C625        C626   1.401   1_556  A
C626        C627   1.396       .  A
C626        H633   1.084       .  S
C627        S629   1.802       .  S
S628        H631   1.406       .  S
S629        H630   1.408       .  S
C634        C635   1.401       .  A
C634        C639   1.418       .  A
C635        C636   1.386       .  A
C635        H644   1.084       .  S
C636        C637   1.408       .  A
C636        S640   1.797       .  S
C637        C638   1.402       .  A
C638        C639   1.410       .  A
C638        H645   1.083       .  S
C639        S641   1.807       .  S
S640        H643   1.397       .  S
S641        H642   1.407       .  S
C646        C647   1.403       .  A
C646        C651   1.414       .  A
C647        C648   1.401       .  A
C647        H656   1.084       .  S
C648        C649   1.415       .  A
C648        S652   1.803       .  S
C649        C650   1.403       .  A
C650        C651   1.398       .  A
C650        H657   1.084       .  S
C651        S653   1.804       .  S
S652        H655   1.408       .  S
S653        H654   1.407       .  S
C658        C659   1.408   1_556  A
C658        C894   1.413       .  A
C659        C660   1.398       .  A
C659        H668   1.084       .  S
C660        C661   1.412   1_554  A
C660        S664   1.805       .  S
C661        C893   1.405       .  A
C662        C892   1.405       .  A
C662        C663   1.403       .  A
C662        H669   1.084       .  S
C663        C889   1.415       .  A
C663        S665   1.801       .  S
S664        H667   1.405       .  S
S665        H666   1.407       .  S
C670        C671   1.404       .  A
C670        C675   1.410       .  A
C671        C672   1.399       .  A
C671        H680   1.082       .  S
C672        C673   1.416       .  A
C672        S676   1.809       .  S
C673        C674   1.408       .  A
C674        C675   1.398       .  A
C674        H681   1.084       .  S
C675        S677   1.801       .  S
S676        H679   1.407       .  S
S677        H678   1.407       .  S
C682        C683   1.397       .  A
C682        C687   1.412       .  A
C683        C684   1.399       .  A
C683        H692   1.084       .  S
C684        C685   1.422       .  A
C684        S688   1.796       .  S
C685        C686   1.407       .  A
C686        C687   1.402       .  A
C686        H693   1.082       .  S
C687        S689   1.802       .  S
S688        H691   1.408       .  S
S689        H690   1.407       .  S
C694        N699   1.356       .  A
C694        C889   1.489       .  S
N695        C696   1.364       .  A
C696        N697   1.362   1_556  A
C696        C916   1.496       .  S
C698        N699   1.354       .  A
C698        C901   1.477       .  S
C700        N705   1.366       .  A
C700        C853   1.483       .  S
N701        C702   1.353       .  A
C702        N703   1.351       .  A
C702        C877   1.469       .  S
C704        N705   1.361       .  A
C704        C865   1.489       .  S
C706        N711   1.367       .  A
C706        C820   1.469       .  S
N707        C708   1.355       .  A
C708        N709   1.341       .  A
C708        C841   1.459       .  S
C710        N711   1.358       .  A
C710        C829   1.475       .  S
N712        C717   1.350       .  A
N712        C716   1.353       .  A
N712        H744   1.039   1_565  S
N713        C720   1.352   1_545  A
N713        C721   1.349       .  A
N714        C719   1.354       .  A
N714        C718   1.349       .  A
N714        H745   1.039       .  S
C716        C724   1.387       .  A
C716        C732   1.414       .  A
C717        C725   1.386       .  A
C718        C726   1.389       .  A
C718        C735   1.414       .  A
C719        C734   1.411       .  A
C719        C727   1.385       .  A
C720        C732   1.414       .  A
C720        C728   1.385       .  A
C721        C735   1.413       .  A
C721        C729   1.387       .  A
C722        C730   1.387       .  A
C722        C733   1.411   1_545  A
C723        C731   1.385       .  A
C724        C725   1.375       .  A
C724        H736   1.082       .  S
C726        C727   1.374       .  A
C726        H738   1.082       .  S
C727        H739   1.082       .  S
C728        C729   1.376   1_565  A
C728        H740   1.082       .  S
C729        H741   1.082       .  S
C730        C731   1.373       .  A
C730        H742   1.082       .  S
C731        H743   1.082       .  S
C732        C892   1.493       .  S
C733        C856   1.479       .  S
C735        C817   1.479       .  S
C746        N751   1.364       .  A
C746        C805   1.486       .  S
N747        C748   1.352       .  A
C748        N749   1.355       .  A
C748        C796   1.466       .  S
C750        N751   1.363       .  A
C750        C784   1.485       .  S
O752        C760   1.254       .  A
O752       Co772   1.970       .  S
O753        C761   1.270       .  A
O753       Co773   1.972       .  S
O754        C762   1.296       .  A
O754       Co774   2.115       .  S
O755        C763   1.275       .  A
O755       Co775   2.027       .  S
O756        C762   1.262       .  A
O756       Co773   1.885       .  S
O757        C763   1.256       .  A
O757       Co772   1.951       .  S
O758        C761   1.277       .  A
O758       Co775   2.022       .  S
O759        C760   1.260       .  A
O759       Co774   1.998       .  S
C760        C880   1.474       .  S
C761        C781   1.487       .  S
C762        C868   1.474       .  S
C763        C793   1.488       .  S
O764        C777   1.274       .  A
O764       Co772   2.032       .  S
O765        C778   1.292       .  A
O765       Co773   2.100       .  S
O766        C779   1.267       .  A
O766       Co774   1.969       .  S
O767        C780   1.250       .  A
O767       Co775   1.961       .  S
O768        C780   1.260       .  A
O768       Co773   1.998       .  S
O769        C779   1.278       .  A
O769       Co772   2.024       .  S
O770        C777   1.251       .  A
O770       Co775   1.935       .  S
O771        C778   1.264       .  A
O771       Co774   1.896       .  S
Co772       O776   2.013       .  S
Co773       O776   1.986       .  S
Co774       O776   2.014       .  S
Co775       O776   2.020       .  S
C777        C844   1.474       .  S
C778        C904   1.483       .  S
C779        C913   1.472       .  S
C780        C832   1.471       .  S
C781        C782   1.406       .  A
C781        C786   1.417       .  A
C782        C783   1.401       .  A
C782        H791   1.084       .  S
C783        C784   1.418       .  A
C783        S787   1.805       .  S
C784        C785   1.402       .  A
C785        C786   1.400       .  A
C785        H792   1.084       .  S
C786        S788   1.800       .  S
S787        H790   1.407       .  S
S788        H789   1.403       .  S
C793        C794   1.408       .  A
C793        C798   1.421       .  A
C794        C795   1.398       .  A
C794        H803   1.083       .  S
C795        C796   1.409       .  A
C795        S799   1.804       .  S
C796        C797   1.398       .  A
C797        C798   1.401       .  A
C797        H804   1.083       .  S
C798        S800   1.811       .  S
S799        H802   1.406       .  S
S800        H801   1.407       .  S
C805        C806   1.406       .  A
C806        C807   1.403       .  A
C806        H815   1.084       .  S
C807        C808   1.415       .  A
C809        C810   1.397       .  A
C809        H816   1.084       .  S
C810        S812   1.804       .  S
S811        H814   1.405   1_455  S
S812        H813   1.407       .  S
C817        C818   1.401       .  A
C818        C819   1.396       .  A
C818        H827   1.084       .  S
C819        C820   1.412       .  A
C819        S823   1.802       .  S
C821        C822   1.394       .  A
C821        H828   1.084       .  S
C822        S824   1.804       .  S
S823        H826   1.406       .  S
S824        H825   1.406       .  S
C829        C830   1.407       .  A
C829        C834   1.406       .  A
C830        C831   1.386       .  A
C830        H839   1.084       .  S
C831        C832   1.410       .  A
C831        S835   1.805       .  S
C832        C833   1.412       .  A
C833        C834   1.399       .  A
C833        H840   1.084       .  S
C834        S836   1.798       .  S
S835        H838   1.397       .  S
S836        H837   1.407       .  S
C841        C842   1.398       .  A
C841        C846   1.412       .  A
C842        C843   1.396       .  A
C842        H851   1.085       .  S
C843        C844   1.420       .  A
C843        S847   1.805       .  S
C844        C845   1.403       .  A
C845        C846   1.394       .  A
C845        H852   1.084       .  S
C846        S848   1.805       .  S
S847        H850   1.406       .  S
S848        H849   1.407       .  S
C853        C858   1.417       .  A
C854        C855   1.393       .  A
C854        H863   1.084       .  S
C855        S859   1.805       .  S
C856        C857   1.401       .  A
C857        C858   1.399       .  A
C857        H864   1.084       .  S
C858        S860   1.801       .  S
S859        H862   1.406       .  S
S860        H861   1.407       .  S
C865        C866   1.404       .  A
C865        C870   1.420       .  A
C866        C867   1.386       .  A
C866        H875   1.084       .  S
C867        C868   1.407       .  A
C867        S871   1.798       .  S
C868        C869   1.404       .  A
C869        C870   1.414       .  A
C869        H876   1.083       .  S
C870        S872   1.805       .  S
S871        H874   1.398       .  S
S872        H873   1.407       .  S
C877        C878   1.401       .  A
C877        C882   1.412       .  A
C878        C879   1.398       .  A
C878        H887   1.084       .  S
C879        C880   1.415       .  A
C879        S883   1.804       .  S
C880        C881   1.403       .  A
C881        C882   1.396       .  A
C881        H888   1.084       .  S
C882        S884   1.804       .  S
S883        H886   1.407       .  S
S884        H885   1.407       .  S
C889        C890   1.409       .  A
C890        C891   1.400       .  A
C890        H899   1.084       .  S
C891        C892   1.412       .  A
C891        S895   1.804       .  S
C893        C894   1.401       .  A
C893        H900   1.084       .  S
C894        S896   1.802       .  S
S895        H898   1.405       .  S
S896        H897   1.407       .  S
C901        C902   1.404       .  A
C901        C906   1.410       .  A
C902        C903   1.401       .  A
C902        H911   1.082       .  S
C903        C904   1.416       .  A
C903        S907   1.809       .  S
C904        C905   1.406       .  A
C905        C906   1.396       .  A
C905        H912   1.084       .  S
C906        S908   1.801       .  S
S907        H910   1.407       .  S
S908        H909   1.406       .  S
C913        C914   1.398       .  A
C913        C918   1.409       .  A
C914        C915   1.400       .  A
C914        H923   1.084       .  S
C915        C916   1.421       .  A
C915        S919   1.797       .  S
C916        C917   1.409       .  A
C917        C918   1.401       .  A
C917        H924   1.082       .  S
C918        S920   1.805       .  S
S919        H922   1.407       .  S
S920        H921   1.407       .  S
