geometry optimzed in LAMMPS
_audit_creation_date              2020-11-30 
_audit_creation_method            'lammps2cif' 
_symmetry_space_group_name_H-M    'P1' 
_symmetry_Int_Tables_number       1 
_symmetry_cell_setting            triclinic 
loop_ 
_symmetry_equiv_pos_as_xyz 
  x,y,z 
_cell_length_a                    28.33085027 
_cell_length_b                    28.54606197700947 
_cell_length_c                    29.46918405334351 
_cell_angle_alpha                 86.92557434858011 
_cell_angle_beta                  88.85159912610443 
_cell_angle_gamma                 88.7718113704271 
loop_ 
_atom_site_label 
_atom_site_type_symbol 
_atom_site_fract_x 
_atom_site_fract_y 
_atom_site_fract_z 
_atom_site_charge 
O1          O  0.46443651  0.57463938  0.07500350    -0.79900
O2          O  0.42319780  0.51829464  0.86822542    -0.79900
O3          O  0.51531649  0.59610232  0.94773368    -0.79900
O4          O  0.37363974  0.48835798  0.01444327    -0.79900
O5          O  0.44119907  0.57939546  0.93395442    -0.80000
O6          O  0.40683158  0.50404145  0.07765455    -0.79900
O7          O  0.39178846  0.47087828  0.92271814    -0.79900
O8          O  0.53295504  0.58457245  0.04152718    -0.79900
C9          C  0.50225487  0.59638028  0.07166036     1.09800
C10         C  0.38987759  0.49211090  0.88267873     1.09700
C11         C  0.47459546  0.60833100  0.93270870     1.09800
C12         C  0.37043247  0.49721623  0.05616239     1.09700
O13         O  0.47688676  0.45595045  0.08918362    -0.79900
O14         O  0.51712809  0.53571839  0.88449300    -0.80000
O15         O  0.57522798  0.49264940  0.02560556    -0.79900
O16         O  0.46394090  0.40232586  0.95374109    -0.79900
O17         O  0.48413957  0.45262545  0.89959123    -0.80000
O18         O  0.52926467  0.50159766  0.08524849    -0.79900
O19         O  0.44359804  0.41221899  0.04075043    -0.79900
O20         O  0.56678324  0.50754682  0.93488956    -0.79900
Co21       Co  0.46910270  0.51233850  0.05212999     1.51500
Co22       Co  0.45989283  0.51451788  0.92164279     1.51700
Co23       Co  0.54189522  0.54145507  0.98690946     1.51600
Co24       Co  0.42459290  0.44969537  0.98388279     1.51500
O25         O  0.48033971  0.50126657  0.98590566    -1.41800
C26         C  0.46446312  0.41671073  0.07790517     1.09700
C27         C  0.55816950  0.52031192  0.89430725     1.09800
C28         C  0.56813020  0.48778708  0.06811215     1.09700
C29         C  0.48258360  0.41083049  0.91545406     1.09700
C30         C  0.20133186  0.45994920  0.16190023     0.03400
C31         C  0.18485541  0.41589059  0.15138854    -0.12800
C32         C  0.14596828  0.39634331  0.17443282     0.00900
C33         C  0.12407824  0.42015069  0.20960766    -0.11300
C34         C  0.14049577  0.46355485  0.22215833     0.03300
C35         C  0.17992295  0.48332170  0.19853875    -0.10700
H36         H  0.20119054  0.39739873  0.12378321     0.08900
H37         H  0.09338404  0.40503071  0.22684502     0.06500
H38         H  0.19269756  0.51703900  0.20750014     0.06300
C39         C  0.77631343  0.43311460  0.24604673     0.03400
C40         C  0.79443278  0.38784895  0.24008141    -0.12800
C41         C  0.77798236  0.36072126  0.20593228     0.00900
C42         C  0.73803928  0.37646360  0.18190098    -0.11300
C43         C  0.71680554  0.42050498  0.18919314     0.03300
C44         C  0.73653211  0.44925695  0.22132901    -0.10700
H45         H  0.82508289  0.37558273  0.25911244     0.08900
H46         H  0.72544668  0.35604116  0.15492426     0.06500
H47         H  0.72299054  0.48463006  0.22507945     0.06300
C48         C  0.22732956  0.44029365  0.78202822     0.03400
C49         C  0.20320054  0.40276023  0.80421945    -0.12800
C50         C  0.16113702  0.38658094  0.78692351     0.00900
C51         C  0.14441262  0.40666574  0.74577210    -0.11300
C52         C  0.16750310  0.44431257  0.72310754     0.03300
C53         C  0.20921501  0.46121167  0.74127368    -0.10700
H54         H  0.21597125  0.38770422  0.83634447     0.08900
H55         H  0.11184784  0.39437089  0.73229539     0.06500
H56         H  0.22658419  0.49108214  0.72462824     0.06300
C57         C  0.77962332  0.44940696  0.73116642     0.03400
C58         C  0.73626416  0.47112308  0.74399425    -0.12800
C59         C  0.71308727  0.45661575  0.78517662     0.00900
C60         C  0.73343970  0.42051424  0.81315598    -0.11300
C61         C  0.77678708  0.39977533  0.80135931     0.03300
C62         C  0.79859147  0.41320457  0.75982953    -0.10700
H63         H  0.72195832  0.50047976  0.72348598     0.08900
H64         H  0.71708319  0.41093896  0.84583819     0.06500
H65         H  0.83165960  0.39615173  0.75050241     0.06300
N66         N  0.96749315  0.26350154  0.93524910    -0.36400
N67         N  0.04842527  0.24770375  0.99474044    -0.56900
N68         N  0.97631030  0.24286153  0.06803085    -0.36400
N69         N  0.89605267  0.25416536  0.00839438    -0.56900
C70         C  0.00343989  0.25777155  0.90508701     0.27200
C71         C  0.92673860  0.26254944  0.91237369     0.27200
C72         C  0.01691312  0.23309724  0.08995377     0.27200
C73         C  0.94024648  0.23306047  0.09734512     0.27200
C74         C  0.06962635  0.26774744  0.95715746     0.35800
C75         C  0.07413830  0.25987921  0.03034935     0.35800
C76         C  0.87053736  0.27737579  0.97565833     0.35800
C77         C  0.87533177  0.26441488  0.04851632     0.35800
C78         C  0.98520040  0.25119346  0.86261576    -0.21700
C79         C  0.93674884  0.25437180  0.86719600    -0.21700
C80         C  0.00671625  0.21523070  0.13358588    -0.21700
C81         C  0.95818425  0.21463307  0.13812065    -0.21700
C82         C  0.11013665  0.29032769  0.96889264    -0.22700
C83         C  0.11306090  0.28520481  0.01514473    -0.22700
C84         C  0.83236469  0.30070821  0.99483874    -0.22700
C85         C  0.83531106  0.29248274  0.04094300    -0.22700
C86         C  0.05089407  0.26915940  0.91290453    -0.18100
C87         C  0.88271720  0.27945338  0.92889191    -0.18100
C88         C  0.89385413  0.25135804  0.09182992    -0.18100
C89         C  0.06012738  0.25338123  0.07649443    -0.18100
H90         H  0.00486761  0.24822180  0.83099186     0.14800
H91         H  0.91184439  0.25427491  0.83981629     0.14800
H92         H  0.03162929  0.20761112  0.16049179     0.14800
H93         H  0.93846724  0.20627941  0.16923724     0.14800
H94         H  0.13363739  0.31107988  0.94700618     0.13100
H95         H  0.13942392  0.30075976  0.03536665     0.13100
H96         H  0.80624701  0.32307949  0.97771659     0.13100
H97         H  0.81185823  0.30764630  0.06584339     0.13100
H98         H  0.97076947  0.27762346  0.96704402     0.26400
H99         H  0.97384279  0.26539730  0.03895265     0.26400
O100        O  0.02530799  0.53453676  0.40680396    -0.79900
O101        O  0.90979649  0.58949536  0.47215322    -0.79900
O102        O  0.91682181  0.45304593  0.39652608    -0.79900
O103        O  0.02217730  0.58392115  0.50218227    -0.79900
O104        O  0.90001413  0.52830011  0.40272474    -0.80000
O105        O  0.08697102  0.55107935  0.47397721    -0.79900
O106        O  0.93370701  0.58093258  0.54200351    -0.79900
O107        O  0.01344383  0.46021186  0.39318866    -0.79900
C108        C  0.02931927  0.50053441  0.38074516     1.09800
C109        C  0.91089322  0.60450124  0.51171445     1.09700
C110        C  0.89736874  0.49126384  0.38145952     1.09800
C111        C  0.06650732  0.58638230  0.49020030     1.09700
O112        O  0.04733918  0.49547766  0.53997402    -0.79900
O113        O  0.86309904  0.45802760  0.46799675    -0.80000
O114        O  0.01750681  0.41226204  0.48367838    -0.79900
O115        O  0.93911431  0.48452708  0.56733289    -0.79900
O116        O  0.87503044  0.51608022  0.53573375    -0.80000
O117        O  0.07043425  0.46171986  0.45928152    -0.79900
O118        O  0.01151439  0.54330536  0.58667547    -0.79900
O119        O  0.92220802  0.41001348  0.48716381    -0.79900
Co120      Co  0.03028351  0.51805075  0.47278817     1.51500
Co121      Co  0.89233008  0.52248258  0.46919436     1.51700
Co122      Co  0.96738046  0.43762583  0.44286674     1.51600
Co123      Co  0.98100527  0.52906116  0.53205801     1.51500
O124        O  0.96178863  0.49942037  0.47470254    -1.41800
C125        C  0.04473628  0.51407730  0.57914586     1.09700
C126        C  0.87857709  0.41815609  0.48333514     1.09800
C127        C  0.06015076  0.42118371  0.47481925     1.09700
C128        C  0.89494215  0.49402130  0.56903720     1.09700
C129        C  0.54147018  0.75249395  0.18533296     0.03400
C130        C  0.51686720  0.76965660  0.22393587    -0.12800
C131        C  0.52936983  0.81305842  0.24135299     0.00900
C132        C  0.56656929  0.83814908  0.22093518    -0.11300
C133        C  0.59051685  0.82221010  0.18285182     0.03300
C134        C  0.57809192  0.77966985  0.16537407    -0.10700
H135        H  0.48880765  0.74957848  0.24041606     0.08900
H136        H  0.57681107  0.87081343  0.23477925     0.06500
H137        H  0.59599783  0.76865765  0.13477103     0.06300
C138        C  0.53119548  0.25701309  0.18626394     0.03400
C139        C  0.56737626  0.23508764  0.16165786    -0.12800
C140        C  0.58825008  0.19305096  0.17840447     0.00900
C141        C  0.57379222  0.17377232  0.22106360    -0.11300
C142        C  0.53728314  0.19483735  0.24618550     0.03300
C143        C  0.51573141  0.23679919  0.22853898    -0.10700
H144        H  0.57779895  0.24980276  0.12833865     0.08900
H145        H  0.59000733  0.14121822  0.23418925     0.06500
H146        H  0.48690951  0.25308675  0.24705494     0.06300
C147        C  0.54946453  0.22060998  0.72758561     0.03400
C148        C  0.59478131  0.20387510  0.73826120    -0.12800
C149        C  0.61621735  0.21620764  0.77787802     0.00900
C150        C  0.59526513  0.25060959  0.80396526    -0.11300
C151        C  0.55108687  0.27080395  0.79263369     0.03300
C152        C  0.52729869  0.25453633  0.75469013    -0.10700
H153        H  0.61073805  0.17607237  0.71900756     0.08900
H154        H  0.61167897  0.25896044  0.83539641     0.06500
H155        H  0.49209890  0.26749661  0.74668334     0.06300
C156        C  0.48793723  0.83961266  0.75749206     0.03400
C157        C  0.47256366  0.79872757  0.78276723    -0.12800
C158        C  0.49940990  0.77903329  0.81974002     0.00900
C159        C  0.54211892  0.80060560  0.82971270    -0.11300
C160        C  0.55673042  0.84180311  0.80609341     0.03300
C161        C  0.52991350  0.86053115  0.76991061    -0.10700
H162        H  0.43947069  0.78337483  0.77439475     0.08900
H163        H  0.56373105  0.78623440  0.85720788     0.06500
H164        H  0.54207810  0.89179406  0.75109301     0.06300
N165        N  0.73189529  0.08692210  0.97547812    -0.36400
N166        N  0.72800026  0.01194966  0.04519311    -0.56900
N167        N  0.72006685  0.93765741  0.98202881    -0.36400
N168        N  0.72791408  0.01161814  0.91219900    -0.56900
C169        C  0.70988588  0.10856617  0.01009187     0.27200
C170        C  0.71745020  0.10921437  0.93649876     0.27200
C171        C  0.70311759  0.91721550  0.02124481     0.27200
C172        C  0.69692822  0.91894570  0.94767900     0.27200
C173        C  0.73193643  0.04982775  0.07024980     0.35800
C174        C  0.73308392  0.97396407  0.07399430     0.35800
C175        C  0.74080217  0.04788163  0.88380877     0.35800
C176        C  0.72557120  0.97385339  0.88671105     0.36100
C177        C  0.68250676  0.14600286  0.99292714    -0.21700
C178        C  0.68756238  0.14668081  0.94649260    -0.21700
C179        C  0.67088207  0.88327437  0.01157730    -0.21700
C180        C  0.66683437  0.88455684  0.96517641    -0.21700
C181        C  0.74234720  0.03598024  0.11472957    -0.22700
C182        C  0.74338232  0.98780153  0.11707385    -0.22700
C183        C  0.74968343  0.03222042  0.84054529    -0.22700
C184        C  0.73902923  0.98541847  0.84225649    -0.22700
C185        C  0.71277094  0.09404919  0.05652329    -0.18100
C186        C  0.72798481  0.09463553  0.89224432    -0.18100
C187        C  0.70131617  0.93319156  0.90112746    -0.18100
C188        C  0.71376778  0.93032014  0.06549864    -0.18100
H189        H  0.65984442  0.16946591  0.01158918     0.14800
H190        H  0.66924953  0.17067495  0.92286653     0.14800
H191        H  0.65074505  0.86114775  0.03545485     0.14800
H192        H  0.64338016  0.86343329  0.94661869     0.14800
H193        H  0.74416941  0.05819262  0.14326545     0.13100
H194        H  0.74586701  0.96562862  0.14794162     0.13100
H195        H  0.75727984  0.05356469  0.80988743     0.13100
H196        H  0.73792303  0.96330046  0.81359948     0.13100
H197        H  0.75614994  0.05893782  0.97798700     0.26400
H198        H  0.74672555  0.96229528  0.97918385     0.26400
C199        C  0.16871967  0.74622511  0.54485235     0.03400
C200        C  0.21164579  0.76283670  0.52570151    -0.12800
C201        C  0.23417028  0.80057327  0.54436637     0.00900
C202        C  0.21433315  0.82071415  0.58301501    -0.11300
C203        C  0.17162491  0.80486184  0.60212527     0.03300
C204        C  0.14963669  0.76696574  0.58359390    -0.10700
H205        H  0.22613873  0.74816762  0.49512721     0.08900
H206        H  0.23067145  0.85093275  0.59644153     0.06500
H207        H  0.11691799  0.75438806  0.59895062     0.06300
C208        C  0.73381160  0.18007346  0.53905866     0.03400
C209        C  0.75738486  0.16187756  0.57817984    -0.12800
C210        C  0.79329703  0.18691860  0.59735638     0.00900
C211        C  0.80460935  0.23137614  0.57895504    -0.11300
C212        C  0.78145945  0.25075125  0.54067993     0.03300
C213        C  0.74686551  0.22468228  0.52005590    -0.10700
H214        H  0.74847734  0.12782258  0.59357274     0.08900
H215        H  0.83282554  0.25036536  0.59360433     0.06500
H216        H  0.73093553  0.23897136  0.48910895     0.06300
C217        C  0.18691888  0.27493519  0.53763484     0.03400
C218        C  0.22569648  0.25031708  0.51923472    -0.12800
C219        C  0.24245679  0.20857961  0.54163014     0.00900
C220        C  0.22019729  0.19193878  0.58216892    -0.11300
C221        C  0.18177631  0.21653552  0.60084743     0.03300
C222        C  0.16596410  0.25839143  0.57870800    -0.10700
H223        H  0.24108529  0.26216092  0.48678319     0.08900
H224        H  0.23142668  0.15846034  0.59788172     0.06500
H225        H  0.13515230  0.27670604  0.59196521     0.06300
C226        C  0.74175323  0.82269410  0.59027521     0.03400
C227        C  0.75903242  0.78404646  0.56584845    -0.12800
C228        C  0.80043764  0.75920896  0.58004718     0.00900
C229        C  0.82434799  0.77383650  0.61776534    -0.11300
C230        C  0.80794503  0.81199465  0.64164379     0.03300
C231        C  0.76691863  0.83616131  0.62780323    -0.10700
H232        H  0.74003090  0.77272738  0.53700994     0.08900
H233        H  0.85671973  0.75574945  0.62823074     0.06500
H234        H  0.75576898  0.86722598  0.64506129     0.06300
N235        N  0.99058899  0.07958696  0.73950814    -0.36400
N236        N  0.91836784  0.00869038  0.75809220    -0.56900
N237        N  0.99825815  0.94258121  0.75044596    -0.36400
N238        N  0.06985957  0.01295317  0.73733258    -0.56900
C239        C  0.95103499  0.10523803  0.74755966     0.27200
C240        C  0.02779736  0.10792090  0.74291520     0.27200
C241        C  0.96298776  0.91477500  0.76619321     0.27200
C242        C  0.03843120  0.91631671  0.75107899     0.27200
C243        C  0.89130703  0.04468369  0.74071904     0.35800
C244        C  0.89552158  0.96905869  0.74949615     0.35800
C245        C  0.09051615  0.05198881  0.71899370     0.35800
C246        C  0.09310719  0.97610650  0.71951808     0.35800
C247        C  0.96298375  0.15028615  0.75738517    -0.21700
C248        C  0.01165278  0.15182429  0.75519510    -0.21700
C249        C  0.98146685  0.87076466  0.77911364    -0.21700
C250        C  0.02915653  0.87162901  0.76908572    -0.21700
C251        C  0.84979405  0.02810804  0.72408966    -0.22700
C252        C  0.85244340  0.98028330  0.72956811    -0.22700
C253        C  0.12866677  0.03964166  0.69144713    -0.22700
C254        C  0.13020299  0.99154802  0.69175709    -0.22700
C255        C  0.90565094  0.09174597  0.73558866    -0.18100
C256        C  0.07324520  0.09838171  0.72436754    -0.18100
C257        C  0.07970882  0.92889983  0.72648158    -0.18100
C258        C  0.91539338  0.92318618  0.75471099    -0.18100
H259        H  0.93900085  0.17961468  0.76263203     0.14800
H260        H  0.03251727  0.18281724  0.75806853     0.14800
H261        H  0.96171687  0.83989465  0.78970610     0.14800
H262        H  0.05348688  0.84187978  0.77128097     0.14800
H263        H  0.82160688  0.04802284  0.70736440     0.13100
H264        H  0.82664506  0.95684033  0.71741439     0.13100
H265        H  0.15163162  0.06261451  0.67122501     0.13100
H266        H  0.15477167  0.97049085  0.67247922     0.13100
H267        H  0.99117544  0.04840842  0.72282082     0.26400
H268        H  0.99347838  0.97324762  0.73030119     0.26400
O269        O  0.51696383  0.92221746  0.42551229    -0.79900
O270        O  0.54043333  0.08096618  0.47316649    -0.79900
O271        O  0.45272126  0.04874512  0.40317469    -0.79900
O272        O  0.54967776  0.95958651  0.57127992    -0.79900
O273        O  0.50549408  0.08323549  0.44584912    -0.80000
O274        O  0.56401398  0.93788247  0.50277908    -0.79900
O275        O  0.56795719  0.03651927  0.52674614    -0.79900
O276        O  0.44866719  0.95002667  0.39889162    -0.79900
C277        C  0.48609428  0.92442269  0.39495700     1.09800
C278        C  0.57563662  0.06835081  0.49656853     1.09700
C279        C  0.48498633  0.07879755  0.40737207     1.09800
C280        C  0.57621082  0.93804560  0.54356102     1.09700
O281        O  0.47996048  0.90945395  0.55638877    -0.79900
O282        O  0.43573846  0.09682754  0.48755449    -0.80000
O283        O  0.38894250  0.95000584  0.48051358    -0.79900
O284        O  0.51074314  0.04965764  0.60077331    -0.79900
O285        O  0.49719307  0.10676893  0.54892165    -0.80000
O286        O  0.43751791  0.89006751  0.47674524    -0.79900
O287        O  0.44961652  0.97708302  0.57730529    -0.79900
O288        O  0.38676444  0.04095926  0.48225262    -0.79900
Co289      Co  0.49927383  0.91984969  0.49015796     1.51500
Co290      Co  0.48700219  0.05391618  0.50911474     1.51700
Co291      Co  0.42386647  0.99736326  0.44387382     1.51600
Co292      Co  0.50376968  0.01030278  0.54724983     1.51500
O293        O  0.48263401  0.98996277  0.48347365    -1.41800
C294        C  0.45660853  0.93313114  0.58514008     1.09700
C295        C  0.39406329  0.08351524  0.48759787     1.09800
C296        C  0.39613793  0.90644563  0.48217572     1.09700
C297        C  0.50597168  0.09396302  0.59032500     1.09700
C298        C  0.69839808  0.85080433  0.57758271    -0.05200
C299        C  0.66614670  0.86421663  0.61195136    -0.32700
C300        C  0.62739670  0.89430261  0.60213782     0.36600
C301        C  0.61967225  0.91117067  0.55711121    -0.05600
C302        C  0.65220065  0.89826717  0.52291814    -0.32600
C303        C  0.69105275  0.86845842  0.53274311     0.36500
H304        H  0.67104913  0.85123660  0.64680086     0.16900
O305        O  0.59639538  0.90524607  0.63651073    -0.60100
H306        H  0.64746215  0.91121129  0.48803009     0.16900
O307        O  0.72284102  0.85874635  0.49863015    -0.60200
H308        H  0.70695925  0.83611959  0.47993946     0.43900
H309        H  0.60840683  0.93446834  0.64843343     0.43800
C310        C  0.83760798  0.83116890  0.67643021    -0.05200
C311        C  0.88437340  0.84159365  0.66443030    -0.32700
C312        C  0.91102488  0.86867142  0.69164988     0.36600
C313        C  0.89141997  0.88497863  0.73243523    -0.05600
C314        C  0.84627771  0.87045996  0.74693713    -0.32600
C315        C  0.81896153  0.84418210  0.71875385     0.36500
H316        H  0.89921550  0.83185509  0.63199632     0.16900
O317        O  0.95512568  0.88177295  0.67639218    -0.60100
H318        H  0.83102615  0.88242438  0.77839004     0.16900
O319        O  0.77405339  0.83194552  0.73231381    -0.60200
H320        H  0.75496006  0.86148806  0.73015769     0.43900
H321        H  0.94998590  0.91098965  0.65723335     0.43800
C322        C  0.35436263  0.11700141  0.49650788    -0.05200
C323        C  0.36397928  0.16341215  0.50699152    -0.32700
C324        C  0.32752502  0.19450131  0.51940887     0.36600
C325        C  0.28060450  0.17947362  0.52168759    -0.05600
C326        C  0.27061313  0.13396124  0.50946283    -0.32600
C327        C  0.30685692  0.10284904  0.49690003     0.36500
H328        H  0.40002999  0.17532787  0.50698988     0.16900
O329        O  0.33843035  0.23836145  0.53231629    -0.60100
H330        H  0.23452292  0.12204072  0.51095041     0.16900
O331        O  0.29531337  0.05856675  0.48562129    -0.60200
H332        H  0.29193956  0.04017975  0.51498714     0.43900
H333        H  0.33975956  0.25822437  0.50367859     0.43800
C334        C  0.15293854  0.19426275  0.63824378    -0.05200
C335        C  0.10456474  0.18877805  0.63134042    -0.32700
C336        C  0.07746887  0.16059539  0.66140202     0.36600
C337        C  0.09849881  0.13752475  0.69959005    -0.05600
C338        C  0.14587675  0.14631615  0.70885913    -0.32600
C339        C  0.17333427  0.17400665  0.67809033     0.36500
H340        H  0.08831432  0.20364678  0.60070291     0.16900
O341        O  0.03172338  0.15182958  0.65054703    -0.60100
H342        H  0.16237407  0.12901647  0.73826749     0.16900
O343        O  0.22009062  0.18051311  0.68673625    -0.60200
H344        H  0.23611160  0.14990696  0.68183356     0.43900
H345        H  0.01318879  0.18003063  0.65896977     0.43800
C346        C  0.61989343  0.09515375  0.49536206    -0.05200
C347        C  0.61636590  0.14431502  0.49054321    -0.32700
C348        C  0.65352750  0.17259464  0.50272146     0.36600
C349        C  0.69611319  0.15178263  0.51891707    -0.05600
C350        C  0.70093032  0.10241216  0.51960999    -0.32600
C351        C  0.66300125  0.07424370  0.50918768     0.36500
H352        H  0.58302875  0.16113703  0.48122006     0.16900
O353        O  0.64576365  0.22016199  0.50321460    -0.60100
H354        H  0.73362147  0.08527746  0.53033082     0.16900
O355        O  0.66804011  0.02631254  0.51371892    -0.60200
H356        H  0.66432537  0.01825831  0.54674301     0.43900
H357        H  0.64505120  0.23145683  0.47081505     0.43800
C358        C  0.87920089  0.12334895  0.70297486    -0.05200
C359        C  0.89564732  0.12626497  0.65768369    -0.32700
C360        C  0.86770761  0.14686366  0.62327585     0.36600
C361        C  0.82258167  0.16511069  0.63385182    -0.05600
C362        C  0.80639284  0.16345818  0.67922418    -0.32600
C363        C  0.83456217  0.14278691  0.71381567     0.36500
H364        H  0.92941128  0.11035179  0.64870775     0.16900
O365        O  0.88370981  0.14680781  0.57902494    -0.60100
H366        H  0.77178410  0.17775232  0.68767309     0.16900
O367        O  0.81744590  0.13980565  0.75764478    -0.60200
H368        H  0.82938925  0.16799094  0.77156536     0.43900
H369        H  0.90138530  0.17628928  0.57391676     0.43800
C370        C  0.27466110  0.82402448  0.52084214    -0.05200
C371        C  0.31902249  0.80143914  0.51716043    -0.32700
C372        C  0.35903978  0.82686399  0.50217013     0.36600
C373        C  0.35479921  0.87560987  0.49123835    -0.05600
C374        C  0.30942425  0.89669214  0.49148026    -0.32600
C375        C  0.26985906  0.87143906  0.50591030     0.36500
H376        H  0.32305195  0.76472158  0.52796897     0.16900
O377        O  0.40221704  0.80431000  0.50086445    -0.60100
H378        H  0.30450260  0.93363037  0.48193146     0.16900
O379        O  0.22673351  0.89418187  0.50752481    -0.60200
H380        H  0.21045133  0.88566713  0.47973937     0.43900
H381        H  0.40374877  0.78961652  0.47110539     0.43800
C382        C  0.14659760  0.83259403  0.63663349    -0.05200
C383        C  0.16809344  0.84146211  0.67785166    -0.32700
C384        C  0.14599310  0.87130130  0.70860769     0.36600
C385        C  0.10238079  0.89313986  0.69785861    -0.05600
C386        C  0.08071408  0.88367552  0.65707003    -0.32600
C387        C  0.10245491  0.85386935  0.62655201     0.36500
H388        H  0.20224844  0.82569117  0.68584347     0.16900
O389        O  0.16780182  0.88001561  0.74829565    -0.60100
H390        H  0.04746981  0.90088857  0.64814996     0.16900
O391        O  0.08120935  0.84737057  0.58598581    -0.60200
H392        H  0.09556394  0.87070766  0.56398423     0.43900
H393        H  0.15399704  0.85753268  0.77143992     0.43800
C394        C  0.46275280  0.86138681  0.71693559    -0.05200
C395        C  0.45505851  0.91044534  0.71332923    -0.32700
C396        C  0.44686858  0.93438910  0.67109014     0.36600
C397        C  0.44664099  0.90941392  0.63099891    -0.05600
C398        C  0.44833862  0.85989515  0.63564059    -0.32600
C399        C  0.45615621  0.83597633  0.67799301     0.36500
H400        H  0.45937627  0.93079659  0.74291951     0.16900
O401        O  0.44497394  0.98248640  0.66900544    -0.60100
H402        H  0.44764612  0.83959039  0.60563993     0.16900
O403        O  0.46316841  0.78825027  0.67972081    -0.60200
H404        H  0.43105192  0.77505263  0.68154117     0.43900
H405        H  0.41083782  0.99093277  0.66877274     0.43800
C406        C  0.59714643  0.86802091  0.82280483    -0.05200
C407        C  0.64174934  0.84607037  0.82862383    -0.32700
C408        C  0.67773290  0.86834333  0.85106360     0.36600
C409        C  0.66896440  0.91262427  0.86860137    -0.05600
C410        C  0.62550599  0.93563615  0.86024234    -0.32600
C411        C  0.58995930  0.91394803  0.83721508     0.36500
H412        H  0.64817660  0.81112932  0.81691861     0.16900
O413        O  0.72096277  0.84644505  0.85637948    -0.60100
H414        H  0.61828757  0.96972043  0.87368523     0.16900
O415        O  0.54687848  0.93634921  0.83242638    -0.60200
H416        H  0.55064782  0.95842258  0.80550274     0.43900
H417        H  0.71702046  0.82397467  0.88295657     0.43800
C418        C  0.52497471  0.19482216  0.69286516    -0.05200
C419        C  0.53098079  0.20836929  0.64671704    -0.32700
C420        C  0.52323399  0.17654864  0.61288716     0.36600
C421        C  0.51041324  0.12977921  0.62504273    -0.05600
C422        C  0.50223057  0.11717294  0.67119224    -0.32600
C423        C  0.50881870  0.14934166  0.70475646     0.36500
H424        H  0.54465571  0.24269776  0.63698824     0.16900
O425        O  0.53076267  0.19090244  0.56822529    -0.60100
H426        H  0.49161904  0.08187705  0.68146388     0.16900
O427        O  0.50329725  0.13472209  0.74958870    -0.60200
H428        H  0.46990670  0.14229983  0.75740296     0.43900
H429        H  0.56549885  0.18950407  0.56358598     0.43800
C430        C  0.65069049  0.18327306  0.79917369    -0.05200
C431        C  0.69455966  0.19833062  0.81357333    -0.32700
C432        C  0.72302931  0.16808521  0.84086657     0.36600
C433        C  0.70694484  0.12303803  0.85422191    -0.05600
C434        C  0.66444222  0.10748922  0.83769968    -0.32600
C435        C  0.63617757  0.13725933  0.81088437     0.36500
H436        H  0.70558193  0.23394543  0.80534657     0.16900
O437        O  0.76429574  0.18402405  0.85732636    -0.60100
H438        H  0.65125911  0.07327037  0.84874474     0.16900
O439        O  0.59243642  0.12234285  0.79956232    -0.60200
H440        H  0.57078016  0.13232383  0.82426930     0.43900
H441        H  0.78968044  0.16332709  0.84547822     0.43800
C442        C  0.49834866  0.11037768  0.36691693    -0.05200
C443        C  0.46579232  0.11952412  0.33177894    -0.32700
C444        C  0.47692524  0.14916676  0.29350671     0.36600
C445        C  0.52131703  0.17036051  0.28948489    -0.05600
C446        C  0.55377864  0.16159878  0.32440180    -0.32600
C447        C  0.54288015  0.13193355  0.36254056     0.36500
H448        H  0.43151130  0.10337793  0.33376242     0.16900
O449        O  0.44537516  0.15469136  0.25884206    -0.60100
H450        H  0.58858951  0.17660794  0.32127244     0.16900
O451        O  0.57703754  0.12293247  0.39421211    -0.60200
H452        H  0.59440636  0.09465131  0.38423771     0.43900
H453        H  0.42361800  0.18045859  0.26763478     0.43800
C454        C  0.68397142  0.11959517  0.09055674    -0.05200
C455        C  0.64546438  0.09661622  0.11181170    -0.32700
C456        C  0.61470685  0.11999363  0.14087027     0.36600
C457        C  0.62217407  0.16727695  0.14951659    -0.05600
C458        C  0.66069707  0.19042747  0.12834028    -0.32600
C459        C  0.69184202  0.16680875  0.09939590     0.36500
H460        H  0.63836333  0.06061228  0.10466266     0.16900
O461        O  0.57632517  0.09676939  0.15920208    -0.60100
H462        H  0.66624722  0.22700717  0.13402880     0.16900
O463        O  0.72857914  0.19065445  0.07860395    -0.60200
H464        H  0.75764238  0.17501457  0.09067684     0.43900
H465        H  0.55005840  0.10510419  0.13831663     0.43800
C466        C  0.50698321  0.83379938  0.28196183    -0.05200
C467        C  0.52554862  0.82126693  0.32465871    -0.32700
C468        C  0.51871815  0.85030035  0.36129935     0.36600
C469        C  0.49239818  0.89301080  0.35603888    -0.05600
C470        C  0.47110947  0.90397055  0.31398246    -0.32600
C471        C  0.47867324  0.87505935  0.27709030     0.36500
H472        H  0.54819627  0.79032166  0.32886635     0.16900
O473        O  0.53795403  0.83630125  0.40230788    -0.60100
H474        H  0.45016690  0.93597450  0.30909710     0.16900
O475        O  0.46099720  0.88909464  0.23545665    -0.60200
H476        H  0.42913626  0.87541759  0.23507158     0.43900
H477        H  0.57156815  0.84528599  0.39970035     0.43800
C478        C  0.62587736  0.85215799  0.15892393    -0.05200
C479        C  0.67052784  0.83350170  0.14715128    -0.32700
C480        C  0.70186853  0.86004612  0.11947185     0.36600
C481        C  0.68846995  0.90555335  0.10362726    -0.05600
C482        C  0.64522255  0.92511974  0.11773223    -0.32600
C483        C  0.61390828  0.89881333  0.14506738     0.36500
H484        H  0.68033560  0.79785533  0.15815116     0.16900
O485        O  0.74461073  0.84089525  0.10678091    -0.60100
H486        H  0.63433334  0.95988283  0.10481279     0.16900
O487        O  0.56986494  0.91735613  0.15425041    -0.60200
H488        H  0.57465647  0.94023314  0.17783052     0.43900
H489        H  0.73842174  0.82438149  0.07881480     0.43800
C490        C  0.79742731  0.29669323  0.52107796    -0.05200
C491        C  0.82515089  0.29820653  0.48113178    -0.32700
C492        C  0.85013564  0.33861993  0.46762534     0.36600
C493        C  0.84644057  0.37877641  0.49335417    -0.05600
C494        C  0.81672600  0.37813500  0.53193596    -0.32600
C495        C  0.79258659  0.33733329  0.54611371     0.36500
H496        H  0.82991942  0.26699680  0.46203686     0.16900
O497        O  0.87924011  0.33819320  0.42987142    -0.60100
H498        H  0.81435304  0.40827133  0.55249709     0.16900
O499        O  0.76662752  0.33653499  0.58592894    -0.60200
H500        H  0.73439839  0.34711710  0.57704567     0.43900
H501        H  0.90953410  0.32408762  0.44075780     0.43800
C502        C  0.82037541  0.71722545  0.55782863    -0.05200
C503        C  0.84066798  0.72097961  0.51378664    -0.32700
C504        C  0.86989316  0.68451680  0.49751710     0.36600
C505        C  0.87941874  0.64390726  0.52560154    -0.05600
C506        C  0.85737539  0.63971248  0.56869396    -0.32600
C507        C  0.82798599  0.67543962  0.58457451     0.36500
H508        H  0.83601209  0.75316473  0.49302932     0.16900
O509        O  0.89063518  0.68992705  0.45517990    -0.60100
H510        H  0.86318441  0.60845955  0.59058143     0.16900
O511        O  0.80891778  0.67039090  0.62768733    -0.60200
H512        H  0.77990633  0.65210578  0.62458175     0.43900
H513        H  0.92208817  0.70308287  0.46031281     0.43800
C514        C  0.09723091  0.38462463  0.48308894    -0.05200
C515        C  0.14052180  0.39604854  0.50179486    -0.32700
C516        C  0.17245624  0.36051743  0.51691221     0.36600
C517        C  0.16198851  0.31320212  0.51166413    -0.05600
C518        C  0.12089116  0.30219170  0.48913818    -0.32600
C519        C  0.08839385  0.33738993  0.47530053     0.36500
H520        H  0.14816551  0.43227759  0.50745634     0.16900
O521        O  0.21177398  0.37206736  0.53991985    -0.60100
H522        H  0.11245996  0.26582261  0.48501185     0.16900
O523        O  0.04782666  0.32526514  0.45453683    -0.60200
H524        H  0.02644308  0.31366859  0.47953323     0.43900
H525        H  0.23657061  0.37754012  0.51613356     0.43800
C526        C  0.14298929  0.70784952  0.52440704    -0.05200
C527        C  0.16745251  0.66668168  0.51327343    -0.32700
C528        C  0.14326402  0.62790803  0.49916297     0.36600
C529        C  0.09343163  0.62947842  0.49666804    -0.05600
C530        C  0.06929083  0.67168648  0.50492842    -0.32600
C531        C  0.09364564  0.71077324  0.51830664     0.36500
H532        H  0.20533829  0.66377796  0.51738879     0.16900
O533        O  0.16859582  0.58764417  0.49100323    -0.60100
H534        H  0.03123906  0.67418334  0.50200292     0.16900
O535        O  0.06912581  0.75202706  0.52448522    -0.60200
H536        H  0.04818027  0.74577230  0.55141600     0.43900
H537        H  0.17687861  0.59025578  0.45811363     0.43800
C538        C  0.80785134  0.46505242  0.68979886    -0.05200
C539        C  0.85716693  0.46956682  0.69297099    -0.32700
C540        C  0.88595098  0.47810312  0.65422607     0.36600
C541        C  0.86577168  0.48320050  0.61092017    -0.05600
C542        C  0.81616290  0.48143043  0.60802715    -0.32600
C543        C  0.78749195  0.47142587  0.64666988     0.36500
H544        H  0.87373453  0.46581264  0.72582097     0.16900
O545        O  0.93372127  0.48182938  0.65929798    -0.60100
H546        H  0.79943988  0.48662526  0.57535504     0.16900
O547        O  0.73990467  0.46631366  0.64155178    -0.60200
H548        H  0.73585230  0.43241728  0.63726988     0.43900
H549        H  0.93858438  0.51514788  0.66564803     0.43800
C550        C  0.80267951  0.36869393  0.83468494    -0.05200
C551        C  0.78177686  0.32830454  0.85494699    -0.32700
C552        C  0.80690191  0.29886904  0.88624846     0.36600
C553        C  0.85363891  0.30940488  0.89679544    -0.05600
C554        C  0.87367450  0.35050582  0.87758313    -0.32600
C555        C  0.84869322  0.38003831  0.84697311     0.36500
H556        H  0.74617243  0.31947129  0.84629148     0.16900
O557        O  0.78606983  0.25965822  0.90583676    -0.60100
H558        H  0.90899574  0.35991347  0.88668047     0.16900
O559        O  0.86872325  0.42113979  0.83074190    -0.60200
H560        H  0.89356160  0.41177691  0.80862993     0.43900
H561        H  0.76037166  0.27138869  0.92584622     0.43800
C562        C  0.07959954  0.49948117  0.61489066    -0.05200
C563        C  0.10823861  0.45919232  0.60941510    -0.32700
C564        C  0.14013722  0.44321042  0.64283858     0.36600
C565        C  0.14407684  0.46735007  0.68291951    -0.05600
C566        C  0.11740105  0.50887206  0.68770829    -0.32600
C567        C  0.08538233  0.52501205  0.65416628     0.36500
H568        H  0.10472554  0.43888469  0.57979298     0.16900
O569        O  0.16556782  0.40246243  0.63710422    -0.60100
H570        H  0.11965095  0.52756892  0.71861051     0.16900
O571        O  0.05992512  0.56565427  0.66030497    -0.60200
H572        H  0.03187638  0.55597274  0.67889811     0.43900
H573        H  0.19723144  0.41265080  0.62611642     0.43800
C574        C  0.13156254  0.35312950  0.81468066    -0.05200
C575        C  0.15086107  0.31042547  0.83256787    -0.32700
C576        C  0.12422127  0.28088355  0.86250973     0.36600
C577        C  0.07779563  0.29429065  0.87520569    -0.05600
C578        C  0.05825443  0.33621224  0.85604008    -0.32600
C579        C  0.08448363  0.36533445  0.82598316     0.36500
H580        H  0.18691699  0.30042444  0.82398308     0.16900
O581        O  0.14386670  0.23951220  0.87990589    -0.60100
H582        H  0.02304200  0.34763796  0.86615953     0.16900
O583        O  0.06507545  0.40764340  0.81086185    -0.60200
H584        H  0.04220253  0.40001047  0.78743612     0.43900
H585        H  0.17022162  0.24850353  0.89909935     0.43800
C586        C  0.80400898  0.46321658  0.27477239    -0.05200
C587        C  0.78547123  0.47672447  0.31661836    -0.32700
C588        C  0.81577619  0.49013399  0.35061990     0.36600
C589        C  0.86513627  0.48987356  0.34284839    -0.05600
C590        C  0.88312340  0.48037484  0.29972214    -0.32600
C591        C  0.85288006  0.46830447  0.26545680     0.36500
H592        H  0.74816335  0.47292163  0.32438924     0.16900
O593        O  0.79722864  0.49969628  0.39255992    -0.60100
H594        H  0.92087927  0.47991527  0.29329709     0.16900
O595        O  0.87205541  0.45680909  0.22429249    -0.60200
H596        H  0.86200472  0.48255133  0.20244308     0.43900
H597        H  0.79045778  0.46865812  0.40776967     0.43800
C598        C  0.80962550  0.32381076  0.18762170    -0.05200
C599        C  0.85760864  0.33424073  0.18093644    -0.32700
C600        C  0.88686586  0.30728532  0.15378909     0.36600
C601        C  0.86847671  0.26898516  0.13237973    -0.05600
C602        C  0.82224460  0.25492951  0.14328054    -0.32600
C603        C  0.79250935  0.28243472  0.17034602     0.36500
H604        H  0.87185575  0.36596556  0.19327837     0.16900
O605        O  0.93174474  0.32223949  0.14387089    -0.60100
H606        H  0.80807044  0.22503598  0.12757015     0.16900
O607        O  0.74655955  0.26967505  0.17831690    -0.60200
H608        H  0.73110744  0.27385265  0.14844971     0.43900
H609        H  0.95076228  0.31117944  0.17039422     0.43800
C610        C  0.11467305  0.48662751  0.25983416    -0.05200
C611        C  0.13602493  0.48919712  0.30215623    -0.32700
C612        C  0.10871707  0.49784378  0.34137139     0.36600
C613        C  0.05921907  0.50433703  0.33872629    -0.05600
C614        C  0.03841257  0.50505030  0.29595951    -0.32600
C615        C  0.06569206  0.49639350  0.25674585     0.36500
H616        H  0.17332968  0.48083468  0.30546429     0.16900
O617        O  0.13016789  0.49525979  0.38274958    -0.60100
H618        H  0.00055500  0.50980731  0.29325491     0.16900
O619        O  0.04390935  0.49546170  0.21563016    -0.60200
H620        H  0.02655044  0.46559377  0.21674608     0.43900
H621        H  0.13768134  0.52810405  0.38874100     0.43800
C622        C  0.12283486  0.35597865  0.15588058    -0.05200
C623        C  0.07815054  0.36377136  0.13733534    -0.32700
C624        C  0.05733795  0.32955377  0.11304953     0.36600
C625        C  0.08023176  0.28574198  0.10841055    -0.05600
C626        C  0.12440421  0.27698480  0.12826890    -0.32600
C627        C  0.14600028  0.31214499  0.15174745     0.36500
H628        H  0.06055185  0.39772706  0.13928779     0.16900
O629        O  0.01582209  0.34031805  0.09131555    -0.60100
H630        H  0.14286544  0.24387994  0.12381616     0.16900
O631        O  0.19021379  0.30413892  0.16901023    -0.60200
H632        H  0.18506403  0.28596543  0.19825958     0.43900
H633        H  0.02529202  0.35253183  0.06038280     0.43800
C634        C  0.47632194  0.37579653  0.10861652    -0.05200
C635        C  0.50468388  0.38226514  0.14650935    -0.32700
C636        C  0.52081090  0.34404197  0.17387282     0.36600
C637        C  0.50766483  0.29851845  0.16431990    -0.05600
C638        C  0.47816119  0.29205425  0.12757820    -0.32600
C639        C  0.46266011  0.33018889  0.09963692     0.36500
H640        H  0.51585946  0.41692666  0.15427221     0.16900
O641        O  0.55061084  0.35138535  0.20881960    -0.60100
H642        H  0.46877172  0.25693662  0.11940371     0.16900
O643        O  0.43484491  0.32228024  0.06337119    -0.60200
H644        H  0.45721093  0.31541074  0.03815188     0.43900
H645        H  0.58257692  0.35346990  0.19456159     0.43800
C646        C  0.51190788  0.63326517  0.10484564    -0.05200
C647        C  0.47448010  0.65867379  0.12512048    -0.32700
C648        C  0.48304466  0.69592953  0.15345786     0.36600
C649        C  0.52974961  0.70769729  0.16336680    -0.05600
C650        C  0.56676531  0.67906340  0.14672747    -0.32600
C651        C  0.55827763  0.64259361  0.11786323     0.36500
H652        H  0.43834143  0.65126303  0.11711273     0.16900
O653        O  0.44571425  0.72311672  0.16775720    -0.60100
H654        H  0.60296810  0.68594508  0.15502397     0.16900
O655        O  0.59570251  0.61565633  0.10334450    -0.60200
H656        H  0.60709530  0.63184372  0.07471654     0.43900
H657        H  0.43070614  0.70449983  0.19328872     0.43800
C658        C  0.46982239  0.65448126  0.90704937    -0.05200
C659        C  0.45625831  0.65646432  0.86122777    -0.32700
C660        C  0.46387432  0.69694792  0.83250260     0.36600
C661        C  0.48398432  0.73719831  0.84975759    -0.05600
C662        C  0.49371947  0.73585004  0.89669979    -0.32600
C663        C  0.48803299  0.69490707  0.92466146     0.36500
H664        H  0.44319756  0.62527712  0.84668089     0.16900
O665        O  0.45429976  0.69543786  0.78719049    -0.60100
H666        H  0.50768461  0.76629794  0.91175783     0.16900
O667        O  0.50135397  0.69440982  0.96920137    -0.60200
H668        H  0.53583082  0.68759544  0.96863797     0.43900
H669        H  0.48460089  0.68607197  0.77247783     0.43800
C670        C  0.59624483  0.51466243  0.85949700    -0.05200
C671        C  0.58763181  0.49273407  0.81890313    -0.32700
C672        C  0.62548134  0.47638454  0.79176600     0.36600
C673        C  0.67246642  0.48327477  0.80447097    -0.05600
C674        C  0.68065581  0.50901908  0.84261543    -0.32600
C675        C  0.64326657  0.52401751  0.87031885     0.36500
H676        H  0.55180491  0.48457011  0.81039239     0.16900
O677        O  0.61622389  0.45018882  0.75545593    -0.60100
H678        H  0.71655898  0.51457735  0.85285394     0.16900
O679        O  0.65313147  0.54657301  0.90890147    -0.60200
H680        H  0.66414354  0.52157291  0.93112993     0.43900
H681        H  0.61482601  0.47306591  0.72896408     0.43800
C682        C  0.50062895  0.37245917  0.88731686    -0.05200
C683        C  0.47059066  0.33667811  0.87504887    -0.32700
C684        C  0.48543098  0.30414634  0.84293941     0.36600
C685        C  0.53102505  0.30703383  0.82284655    -0.05600
C686        C  0.56085272  0.34255815  0.83593383    -0.32600
C687        C  0.54622179  0.37444038  0.86804982     0.36500
H688        H  0.43518990  0.33464512  0.88953897     0.16900
O689        O  0.45599858  0.26873195  0.83291390    -0.60100
H690        H  0.59627211  0.34522471  0.82158106     0.16900
O691        O  0.57715117  0.40720541  0.88099589    -0.60200
H692        H  0.59559628  0.39128309  0.90580002     0.43900
H693        H  0.43198486  0.28371876  0.81250677     0.43800
C694        C  0.34874040  0.48421410  0.85384269    -0.05200
C695        C  0.30306941  0.48941170  0.87230673    -0.32700
C696        C  0.26340831  0.47738805  0.84806244     0.36600
C697        C  0.26880684  0.45944767  0.80457640    -0.05600
C698        C  0.31445451  0.45536465  0.78539564    -0.32600
C699        C  0.35429921  0.46763450  0.80971553     0.36500
H700        H  0.29814877  0.50214112  0.90610319     0.16900
O701        O  0.21924198  0.48321433  0.86715370    -0.60100
H702        H  0.31933221  0.44074326  0.75240868     0.16900
O703        O  0.39854798  0.45968006  0.79162657    -0.60200
H704        H  0.40771197  0.49004310  0.77640171     0.43900
H705        H  0.21579191  0.45671627  0.89007672     0.43800
C706        C  0.32478817  0.49715941  0.08191566    -0.05200
C707        C  0.28263679  0.48793384  0.06034464    -0.32700
C708        C  0.24103849  0.47952742  0.08589989     0.36600
C709        C  0.24121229  0.47974190  0.13392094    -0.05600
C710        C  0.28229859  0.49253233  0.15515803    -0.32600
C711        C  0.32376251  0.50123944  0.12980898     0.36500
H712        H  0.28216337  0.48550985  0.02378647     0.16900
O713        O  0.20015727  0.47101518  0.06377580    -0.60100
H714        H  0.28312972  0.49306977  0.19187201     0.16900
O715        O  0.36350540  0.51203469  0.15271499    -0.60200
H716        H  0.37672196  0.48149864  0.16479586     0.43900
H717        H  0.20572123  0.44081135  0.04918974     0.43800
C718        C  0.60517687  0.46767436  0.09868770    -0.05200
C719        C  0.60037142  0.47312525  0.14577011    -0.32700
C720        C  0.63633487  0.45858295  0.17560240     0.36600
C721        C  0.67805104  0.43764757  0.15869760    -0.05600
C722        C  0.68229370  0.43111435  0.11170096    -0.32600
C723        C  0.64619719  0.44521884  0.08196015     0.36500
H724        H  0.56892335  0.48970269  0.15967272     0.16900
O725        O  0.62975275  0.46382357  0.22130017    -0.60100
H726        H  0.71406944  0.41524205  0.09770678     0.16900
O727        O  0.65180779  0.43728336  0.03664227    -0.60200
H728        H  0.63902649  0.40561490  0.03320780     0.43900
H729        H  0.63287370  0.49788580  0.22536584     0.43800
loop_ 
_geom_bond_atom_site_label_1 
_geom_bond_atom_site_label_2 
_geom_bond_distance 
_geom_bond_site_symmetry_2 
_ccdc_geom_bond_type 
O1            C9   1.249       .  A
O1          Co21   1.936       .  S
O2           C10   1.269       .  A
O2          Co22   1.901       .  S
O3           C11   1.279       .  A
O3          Co23   2.031       .  S
O4           C12   1.269       .  A
O4          Co24   2.025   1_554  S
O5           C11   1.268       .  A
O5          Co22   1.966       .  S
O6           C12   1.245       .  A
O6          Co21   1.918       .  S
O7           C10   1.299       .  A
O7          Co24   2.099       .  S
O8            C9   1.283       .  A
O8          Co23   2.086   1_554  S
C9          C646   1.508       .  S
C10         C694   1.484       .  S
C11         C658   1.488       .  S
C12         C706   1.486       .  S
O13          C26   1.245       .  A
O13         Co21   1.907       .  S
O14          C27   1.268       .  A
O14         Co22   2.023       .  S
O15          C28   1.265       .  A
O15         Co23   1.987   1_554  S
O16          C29   1.250       .  A
O16         Co24   1.971       .  S
O17          C29   1.259       .  A
O17         Co22   2.017       .  S
O18          C28   1.266       .  A
O18         Co21   1.991       .  S
O19          C26   1.268       .  A
O19         Co24   2.015   1_554  S
O20          C27   1.258       .  A
O20         Co23   1.967       .  S
Co21         O25   2.012   1_554  S
Co22         O25   2.006       .  S
Co23         O25   2.109       .  S
Co24         O25   2.186       .  S
C26         C634   1.476       .  S
C27         C670   1.486       .  S
C28         C718   1.483       .  S
C29         C682   1.485       .  S
C30         C709   1.489       .  S
C30          C31   1.403       .  A
C30          C35   1.419       .  A
C31          C32   1.394       .  A
C31          H36   1.084       .  S
C32         C622   1.473       .  S
C32          C33   1.397       .  A
C33          C34   1.403       .  A
C33          H37   1.084       .  S
C34         C610   1.492       .  S
C34          C35   1.416       .  A
C35          H38   1.083       .  S
C39         C586   1.485       .  S
C39          C40   1.399       .  A
C39          C44   1.410       .  A
C40          C41   1.396       .  A
C40          H45   1.085       .  S
C41         C598   1.485       .  S
C41          C42   1.400       .  A
C42          C43   1.407       .  A
C42          H46   1.081       .  S
C43         C721   1.491       .  S
C43          C44   1.417       .  A
C44          H47   1.083       .  S
C48         C697   1.490       .  S
C48          C49   1.408       .  A
C48          C53   1.413       .  A
C49          C50   1.402       .  A
C49          H54   1.084       .  S
C50         C574   1.485       .  S
C50          C51   1.400       .  A
C51          C52   1.402       .  A
C51          H55   1.084       .  S
C52         C565   1.485       .  S
C52          C53   1.412       .  A
C53          H56   1.083       .  S
C57         C538   1.498       .  S
C57          C58   1.418       .  A
C57          C62   1.404       .  A
C58          C59   1.415       .  A
C58          H63   1.083       .  S
C59         C673   1.486       .  S
C59          C60   1.406       .  A
C60          C61   1.398       .  A
C60          H64   1.085       .  S
C61         C550   1.482       .  S
C61          C62   1.399       .  A
C62          H65   1.084       .  S
N66          C71   1.350       .  A
N66          C70   1.351   1_655  A
N66          H98   1.046       .  S
N67          C74   1.355       .  A
N67          C75   1.354   1_556  A
N68          C73   1.349       .  A
N68          C72   1.347   1_655  A
N68          H99   1.046       .  S
N69          C76   1.353   1_554  A
N69          C77   1.353       .  A
C70          C78   1.387   1_455  A
C70          C86   1.416       .  A
C71          C87   1.414       .  A
C71          C79   1.387       .  A
C72          C80   1.385       .  A
C72          C89   1.406       .  A
C73          C88   1.413       .  A
C73          C81   1.387       .  A
C74          C86   1.416       .  A
C74          C82   1.387       .  A
C75          C89   1.413       .  A
C75          C83   1.385       .  A
C76          C84   1.385       .  A
C76          C87   1.412       .  A
C77          C85   1.389       .  A
C77          C88   1.418       .  A
C78          C79   1.378       .  A
C78          H90   1.082   1_655  S
C79          H91   1.083       .  S
C80          C81   1.379   1_455  A
C80          H92   1.082       .  S
C81          H93   1.082       .  S
C82          C83   1.367   1_556  A
C82          H94   1.081       .  S
C83          H95   1.082       .  S
C84          C85   1.370   1_556  A
C84          H96   1.082       .  S
C85          H97   1.081       .  S
C86         C577   1.495       .  S
C87         C553   1.490       .  S
C88         C601   1.487       .  S
C89         C625   1.483       .  S
O100        C108   1.271       .  A
O100       Co120   1.983       .  S
O101        C109   1.265       .  A
O101       Co121   1.993       .  S
O102        C110   1.274       .  A
O102       Co122   2.024       .  S
O103        C111   1.300       .  A
O103       Co123   2.116   1_455  S
O104        C110   1.262       .  A
O104       Co121   1.965       .  S
O105        C111   1.263       .  A
O105       Co120   1.882       .  S
O106        C109   1.268       .  A
O106       Co123   2.005       .  S
O107        C108   1.277       .  A
O107       Co122   2.030   1_455  S
C108        C613   1.487       .  S
C109        C505   1.490       .  S
C110        C589   1.476       .  S
C111        C529   1.484       .  S
O112        C125   1.296       .  A
O112       Co120   2.111       .  S
O113        C126   1.274       .  A
O113       Co121   2.036       .  S
O114        C127   1.259       .  A
O114       Co122   1.979   1_455  S
O115        C128   1.275       .  A
O115       Co123   1.995       .  S
O116        C128   1.272       .  A
O116       Co121   2.011       .  S
O117        C127   1.259       .  A
O117       Co120   2.003       .  S
O118        C125   1.268       .  A
O118       Co123   1.909   1_455  S
O119        C126   1.259       .  A
O119       Co122   1.957       .  S
Co120       O124   2.022   1_455  S
Co121       O124   2.068       .  S
Co122       O124   2.044       .  S
Co123       O124   2.020       .  S
C125        C562   1.495       .  S
C126        C493   1.476       .  S
C127        C514   1.479       .  S
C128        C541   1.494       .  S
C129        C649   1.510       .  S
C129        C130   1.426       .  A
C129        C134   1.409       .  A
C130        C131   1.421       .  A
C130        H135   1.082       .  S
C131        C466   1.488       .  S
C131        C132   1.395       .  A
C132        C133   1.392       .  A
C132        H136   1.085       .  S
C133        C478   1.475       .  S
C133        C134   1.399       .  A
C134        H137   1.084       .  S
C138        C637   1.472       .  S
C138        C139   1.400       .  A
C138        C143   1.410       .  A
C139        C140   1.397       .  A
C139        H144   1.085       .  S
C140        C457   1.481       .  S
C140        C141   1.402       .  A
C141        C142   1.404       .  A
C141        H145   1.084       .  S
C142        C445   1.489       .  S
C142        C143   1.412       .  A
C143        H146   1.083       .  S
C147        C418   1.484       .  S
C147        C148   1.396       .  A
C147        C152   1.417       .  A
C148        C149   1.392       .  A
C148        H153   1.086       .  S
C149        C430   1.467       .  S
C149        C150   1.395       .  A
C150        C151   1.406       .  A
C150        H154   1.085       .  S
C151        C685   1.496       .  S
C151        C152   1.421       .  A
C152        H155   1.082       .  S
C156        C394   1.503       .  S
C156        C157   1.422       .  A
C156        C161   1.406       .  A
C157        C158   1.425       .  A
C157        H162   1.082       .  S
C158        C661   1.514       .  S
C158        C159   1.413       .  A
C159        C160   1.400       .  A
C159        H163   1.083       .  S
C160        C406   1.487       .  S
C160        C161   1.398       .  A
C161        H164   1.084       .  S
N165        C170   1.350       .  A
N165        C169   1.355   1_556  A
N165        H197   1.043       .  S
N166        C173   1.349       .  A
N166        C174   1.348   1_545  A
N167        C172   1.356       .  A
N167        C171   1.351   1_556  A
N167        H198   1.042       .  S
N168        C175   1.348       .  A
N168        C176   1.350   1_545  A
C169        C177   1.386   1_554  A
C169        C185   1.412       .  A
C170        C186   1.414       .  A
C170        C178   1.390       .  A
C171        C179   1.390       .  A
C171        C188   1.416       .  A
C172        C187   1.414       .  A
C172        C180   1.386       .  A
C173        C185   1.406       .  A
C173        C181   1.384       .  A
C174        C188   1.408       .  A
C174        C182   1.388       .  A
C175        C183   1.390       .  A
C175        C186   1.409       .  A
C176        C184   1.382       .  A
C176        C187   1.403       .  A
C177        C178   1.372       .  A
C177        H189   1.082   1_556  S
C178        H190   1.082       .  S
C179        C180   1.373   1_554  A
C179        H191   1.082       .  S
C180        H192   1.082       .  S
C181        C182   1.373   1_545  A
C181        H193   1.083       .  S
C182        H194   1.083       .  S
C183        C184   1.374   1_545  A
C183        H195   1.083       .  S
C184        H196   1.083       .  S
C185        C454   1.491       .  S
C186        C433   1.475       .  S
C187        C409   1.491       .  S
C188        C481   1.477       .  S
C199        C526   1.489       .  S
C199        C200   1.411       .  A
C199        C204   1.407       .  A
C200        C201   1.406       .  A
C200        H205   1.084       .  S
C201        C370   1.482       .  S
C201        C202   1.405       .  A
C202        C203   1.398       .  A
C202        H206   1.084       .  S
C203        C382   1.482       .  S
C203        C204   1.401       .  A
C204        H207   1.083       .  S
C208        C349   1.503       .  S
C208        C209   1.413       .  A
C208        C213   1.417       .  A
C209        C210   1.401       .  A
C209        H214   1.083       .  S
C210        C361   1.475       .  S
C210        C211   1.394       .  A
C211        C212   1.398       .  A
C211        H215   1.085       .  S
C212        C490   1.481       .  S
C212        C213   1.410       .  A
C213        H216   1.082       .  S
C217        C517   1.475       .  S
C217        C218   1.407       .  A
C217        C222   1.401       .  A
C218        C219   1.409       .  A
C218        H223   1.083       .  S
C219        C325   1.481       .  S
C219        C220   1.404       .  A
C220        C221   1.402       .  A
C220        H224   1.084       .  S
C221        C334   1.482       .  S
C221        C222   1.400       .  A
C222        H225   1.085       .  S
C226        C298   1.495       .  S
C226        C227   1.422       .  A
C226        C231   1.403       .  A
C227        C228   1.416       .  A
C227        H232   1.082       .  S
C228        C502   1.491       .  S
C228        C229   1.400       .  A
C229        C230   1.395       .  A
C229        H233   1.085       .  S
C230        C310   1.473       .  S
C230        C231   1.396       .  A
C231        H234   1.084       .  S
N235        C240   1.351   1_655  A
N235        C239   1.349       .  A
N235        H267   1.039       .  S
N236        C243   1.353       .  A
N236        C244   1.353   1_545  A
N237        C242   1.349   1_655  A
N237        C241   1.349       .  A
N237        H268   1.039       .  S
N238        C245   1.352       .  A
N238        C246   1.353   1_545  A
C239        C247   1.384       .  A
C239        C255   1.407       .  A
C240        C256   1.415       .  A
C240        C248   1.389       .  A
C241        C249   1.388       .  A
C241        C258   1.409       .  A
C242        C257   1.406       .  A
C242        C250   1.384       .  A
C243        C255   1.411       .  A
C243        C251   1.385       .  A
C244        C258   1.416       .  A
C244        C252   1.389       .  A
C245        C253   1.389       .  A
C245        C256   1.418       .  A
C246        C254   1.384       .  A
C246        C257   1.411       .  A
C247        C248   1.381   1_655  A
C247        H259   1.082       .  S
C248        H260   1.082       .  S
C249        C250   1.378   1_655  A
C249        H261   1.082       .  S
C250        H262   1.082       .  S
C251        C252   1.367   1_545  A
C251        H263   1.082       .  S
C252        H264   1.081       .  S
C253        C254   1.372   1_545  A
C253        H265   1.081       .  S
C254        H266   1.082       .  S
C255        C358   1.485       .  S
C256        C337   1.490       .  S
C257        C385   1.486       .  S
C258        C313   1.486       .  S
O269        C277   1.266       .  A
O269       Co289   1.958       .  S
O270        C278   1.259       .  A
O270       Co290   1.977       .  S
O271        C279   1.279       .  A
O271       Co291   2.020   1_545  S
O272        C280   1.273       .  A
O272       Co292   2.034   1_565  S
O273        C279   1.298       .  A
O273       Co290   2.065       .  S
O274        C280   1.257       .  A
O274       Co289   1.964       .  S
O275        C278   1.256       .  A
O275       Co292   2.049       .  S
O276        C277   1.282       .  A
O276       Co291   2.047       .  S
C277        C469   1.499       .  S
C278        C346   1.482       .  S
C279        C442   1.503       .  S
C280        C301   1.487       .  S
O281        C294   1.278       .  A
O281       Co289   2.025       .  S
O282        C295   1.248       .  A
O282       Co290   1.972       .  S
O283        C296   1.254       .  A
O283       Co291   1.957       .  S
O284        C297   1.290       .  A
O284       Co292   2.000       .  S
O285        C297   1.282       .  A
O285       Co290   1.989       .  S
O286        C296   1.263       .  A
O286       Co289   2.017       .  S
O287        C294   1.275       .  A
O287       Co292   1.989   1_565  S
O288        C295   1.255       .  A
O288       Co291   1.995   1_545  S
Co289       O293   2.046       .  S
Co290       O293   2.020   1_545  S
Co291       O293   2.053       .  S
Co292       O293   2.099   1_545  S
C294        C397   1.503       .  S
C295        C322   1.489       .  S
C296        C373   1.491       .  S
C297        C421   1.494       .  S
C298        C299   1.413       .  A
C298        C303   1.407       .  A
C299        C300   1.404       .  A
C299        H304   1.084       .  S
C300        C301   1.407       .  A
C300        O305   1.372       .  S
C301        C302   1.410       .  A
C302        C303   1.402       .  A
C302        H306   1.084       .  S
C303        O307   1.372       .  S
O305        H309   0.992       .  S
O307        H308   0.992       .  S
C310        C311   1.399       .  A
C310        C315   1.410       .  A
C311        C312   1.388       .  A
C311        H316   1.084       .  S
C312        C313   1.411       .  A
C312        O317   1.372       .  S
C313        C314   1.404       .  A
C314        C315   1.403       .  A
C314        H318   1.084       .  S
C315        O319   1.373       .  S
O317        H321   0.992       .  S
O319        H320   0.992       .  S
C322        C323   1.410       .  A
C322        C327   1.413       .  A
C323        C324   1.403       .  A
C323        H328   1.083       .  S
C324        C325   1.405       .  A
C324        O329   1.371       .  S
C325        C326   1.403       .  A
C326        C327   1.400       .  A
C326        H330   1.084       .  S
C327        O331   1.372       .  S
O329        H333   0.992       .  S
O331        H332   0.992       .  S
C334        C335   1.403       .  A
C334        C339   1.410       .  A
C335        C336   1.394       .  A
C335        H340   1.084       .  S
C336        C337   1.409       .  A
C336        O341   1.372       .  S
C337        C338   1.406       .  A
C338        C339   1.405       .  A
C338        H342   1.083       .  S
C339        O343   1.372       .  S
O341        H345   0.992       .  S
O343        H344   0.992       .  S
C346        C347   1.405       .  A
C346        C351   1.406       .  A
C347        C348   1.404       .  A
C347        H352   1.084       .  S
C348        C349   1.414       .  A
C348        O353   1.372       .  S
C349        C350   1.412       .  A
C350        C351   1.404       .  A
C350        H354   1.083       .  S
C351        O355   1.372       .  S
O353        H357   0.992       .  S
O355        H356   0.992       .  S
C358        C359   1.404       .  A
C358        C363   1.408       .  A
C359        C360   1.396       .  A
C359        H364   1.084       .  S
C360        C361   1.406       .  A
C360        O365   1.372       .  S
C361        C362   1.404       .  A
C362        C363   1.404       .  A
C362        H366   1.083       .  S
C363        O367   1.369       .  S
O365        H369   0.992       .  S
O367        H368   0.991       .  S
C370        C371   1.405       .  A
C370        C375   1.405       .  A
C371        C372   1.410       .  A
C371        H376   1.083       .  S
C372        C373   1.414       .  A
C372        O377   1.371       .  S
C373        C374   1.408       .  A
C374        C375   1.393       .  A
C374        H378   1.083       .  S
C375        O379   1.372       .  S
O377        H381   0.992       .  S
O379        H380   0.992       .  S
C382        C383   1.407       .  A
C382        C387   1.409       .  A
C383        C384   1.406       .  A
C383        H388   1.083       .  S
C384        C385   1.406       .  A
C384        O389   1.371       .  S
C385        C386   1.402       .  A
C386        C387   1.396       .  A
C386        H390   1.083       .  S
C387        O391   1.372       .  S
O389        H393   0.992       .  S
O391        H392   0.992       .  S
C394        C395   1.411       .  A
C394        C399   1.408       .  A
C395        C396   1.409       .  A
C395        H400   1.084       .  S
C396        C397   1.412       .  A
C396        O401   1.371       .  S
C397        C398   1.413       .  A
C398        C399   1.409       .  A
C398        H402   1.084       .  S
C399        O403   1.371       .  S
O401        H405   0.992       .  S
O403        H404   0.992       .  S
C406        C407   1.408       .  A
C406        C411   1.409       .  A
C407        C408   1.407       .  A
C407        H412   1.083       .  S
C408        C409   1.406       .  A
C408        O413   1.371       .  S
C409        C410   1.403       .  A
C410        C411   1.399       .  A
C410        H414   1.084       .  S
C411        O415   1.372       .  S
O413        H417   0.991       .  S
O415        H416   0.992       .  S
C418        C419   1.402       .  A
C418        C423   1.410       .  A
C419        C420   1.408       .  A
C419        H424   1.084       .  S
C420        C421   1.417       .  A
C420        O425   1.371       .  S
C421        C422   1.404       .  A
C422        C423   1.403       .  A
C422        H426   1.083       .  S
C423        O427   1.371       .  S
O425        H429   0.991       .  S
O427        H428   0.991       .  S
C430        C431   1.405       .  A
C430        C435   1.408       .  A
C431        C432   1.402       .  A
C431        H436   1.084       .  S
C432        C433   1.407       .  A
C432        O437   1.371       .  S
C433        C434   1.398       .  A
C434        C435   1.383       .  A
C434        H438   1.085       .  S
C435        O439   1.372       .  S
O437        H441   0.991       .  S
O439        H440   0.992       .  S
C442        C443   1.411       .  A
C442        C447   1.416       .  A
C443        C444   1.408       .  A
C443        H448   1.083       .  S
C444        C445   1.407       .  A
C444        O449   1.371       .  S
C445        C446   1.403       .  A
C446        C447   1.404       .  A
C446        H450   1.084       .  S
C447        O451   1.369       .  S
O449        H453   0.991       .  S
O451        H452   0.991       .  S
C454        C455   1.404       .  A
C454        C459   1.410       .  A
C455        C456   1.394       .  A
C455        H460   1.084       .  S
C456        C457   1.408       .  A
C456        O461   1.372       .  S
C457        C458   1.406       .  A
C458        C459   1.402       .  A
C458        H462   1.082       .  S
C459        O463   1.372       .  S
O461        H465   0.992       .  S
O463        H464   0.991       .  S
C466        C467   1.399       .  A
C466        C471   1.413       .  A
C467        C468   1.404       .  A
C467        H472   1.084       .  S
C468        C469   1.418       .  A
C468        O473   1.372       .  S
C469        C470   1.406       .  A
C470        C471   1.410       .  A
C470        H474   1.083       .  S
C471        O475   1.371       .  S
O473        H477   0.992       .  S
O475        H476   0.992       .  S
C478        C479   1.406       .  A
C478        C483   1.408       .  A
C479        C480   1.401       .  A
C479        H484   1.083       .  S
C480        C481   1.404       .  A
C480        O485   1.371       .  S
C481        C482   1.400       .  A
C482        C483   1.391       .  A
C482        H486   1.084       .  S
C483        O487   1.373       .  S
O485        H489   0.992       .  S
O487        H488   0.992       .  S
C490        C491   1.401       .  A
C490        C495   1.411       .  A
C491        C492   1.402       .  A
C491        H496   1.084       .  S
C492        C493   1.409       .  A
C492        O497   1.372       .  S
C493        C494   1.401       .  A
C494        C495   1.403       .  A
C494        H498   1.079       .  S
C495        O499   1.372       .  S
O497        H501   0.992       .  S
O499        H500   0.991       .  S
C502        C503   1.409       .  A
C502        C507   1.409       .  A
C503        C504   1.414       .  A
C503        H508   1.083       .  S
C504        C505   1.412       .  A
C504        O509   1.371       .  S
C505        C506   1.404       .  A
C506        C507   1.397       .  A
C506        H510   1.084       .  S
C507        O511   1.372       .  S
O509        H513   0.992       .  S
O511        H512   0.991       .  S
C514        C515   1.406       .  A
C514        C519   1.408       .  A
C515        C516   1.405       .  A
C515        H520   1.083       .  S
C516        C517   1.406       .  A
C516        O521   1.371       .  S
C517        C518   1.401       .  A
C518        C519   1.398       .  A
C518        H522   1.084       .  S
C519        O523   1.372       .  S
O521        H525   0.991       .  S
O523        H524   0.992       .  S
C526        C527   1.402       .  A
C526        C531   1.413       .  A
C527        C528   1.400       .  A
C527        H532   1.083       .  S
C528        C529   1.415       .  A
C528        O533   1.372       .  S
C529        C530   1.403       .  A
C530        C531   1.403       .  A
C530        H534   1.084       .  S
C531        O535   1.373       .  S
O533        H537   0.992       .  S
O535        H536   0.992       .  S
C538        C539   1.411       .  A
C538        C543   1.408       .  A
C539        C540   1.403       .  A
C539        H544   1.083       .  S
C540        C541   1.408       .  A
C540        O545   1.372       .  S
C541        C542   1.412       .  A
C542        C543   1.406       .  A
C542        H546   1.083       .  S
C543        O547   1.371       .  S
O545        H549   0.992       .  S
O547        H548   0.992       .  S
C550        C551   1.406       .  A
C550        C555   1.409       .  A
C551        C552   1.408       .  A
C551        H556   1.084       .  S
C552        C553   1.409       .  A
C552        O557   1.371       .  S
C553        C554   1.401       .  A
C554        C555   1.394       .  A
C554        H558   1.084       .  S
C555        O559   1.373       .  S
O557        H561   0.992       .  S
O559        H560   0.992       .  S
C562        C563   1.408       .  A
C562        C567   1.415       .  A
C563        C564   1.402       .  A
C563        H568   1.081       .  S
C564        C565   1.407       .  A
C564        O569   1.371       .  S
C565        C566   1.404       .  A
C566        C567   1.408       .  A
C566        H570   1.084       .  S
C567        O571   1.371       .  S
O569        H573   0.992       .  S
O571        H572   0.992       .  S
C574        C575   1.406       .  A
C574        C579   1.409       .  A
C575        C576   1.407       .  A
C575        H580   1.083       .  S
C576        C577   1.411       .  A
C576        O581   1.373       .  S
C577        C578   1.403       .  A
C578        C579   1.396       .  A
C578        H582   1.084       .  S
C579        O583   1.372       .  S
O581        H585   0.992       .  S
O583        H584   0.992       .  S
C586        C587   1.401       .  A
C586        C591   1.415       .  A
C587        C588   1.406       .  A
C587        H592   1.083       .  S
C588        C589   1.412       .  A
C588        O593   1.372       .  S
C589        C590   1.398       .  A
C590        C591   1.399       .  A
C590        H594   1.082       .  S
C591        O595   1.372       .  S
O593        H597   0.992       .  S
O595        H596   0.992       .  S
C598        C599   1.406       .  A
C598        C603   1.410       .  A
C599        C600   1.390       .  A
C599        H604   1.083       .  S
C600        C601   1.406       .  A
C600        O605   1.371       .  S
C601        C602   1.404       .  A
C602        C603   1.405       .  A
C602        H606   1.081       .  S
C603        O607   1.372       .  S
O605        H609   0.992       .  S
O607        H608   0.991       .  S
C610        C611   1.403       .  A
C610        C615   1.413       .  A
C611        C612   1.408       .  A
C611        H616   1.084       .  S
C612        C613   1.414       .  A
C612        O617   1.371       .  S
C613        C614   1.401       .  A
C614        C615   1.407       .  A
C614        H618   1.082       .  S
C615        O619   1.373       .  S
O617        H621   0.992       .  S
O619        H620   0.992       .  S
C622        C623   1.398       .  A
C622        C627   1.410       .  A
C623        C624   1.389       .  A
C623        H628   1.084       .  S
C624        C625   1.408       .  A
C624        O629   1.372       .  S
C625        C626   1.404       .  A
C626        C627   1.406       .  A
C626        H630   1.083       .  S
C627        O631   1.371       .  S
O629        H633   0.992       .  S
O631        H632   0.992       .  S
C634        C635   1.411       .  A
C634        C639   1.406       .  A
C635        C636   1.396       .  A
C635        H640   1.083       .  S
C636        C637   1.404       .  A
C636        O641   1.372       .  S
C637        C638   1.403       .  A
C638        C639   1.398       .  A
C638        H642   1.083       .  S
C639        O643   1.372       .  S
O641        H645   0.992       .  S
O643        H644   0.992       .  S
C646        C647   1.413       .  A
C646        C651   1.411       .  A
C647        C648   1.415       .  A
C647        H652   1.083       .  S
C648        C649   1.412       .  A
C648        O653   1.371       .  S
C649        C650   1.412       .  A
C650        C651   1.407       .  A
C650        H654   1.084       .  S
C651        O655   1.371       .  S
O653        H657   0.992       .  S
O655        H656   0.992       .  S
C658        C659   1.409       .  A
C658        C663   1.403       .  A
C659        C660   1.413       .  A
C659        H664   1.084       .  S
C660        C661   1.416       .  A
C660        O665   1.371       .  S
C661        C662   1.414       .  A
C662        C663   1.404       .  A
C662        H666   1.083       .  S
C663        O667   1.372       .  S
O665        H669   0.992       .  S
O667        H668   0.992       .  S
C670        C671   1.407       .  A
C670        C675   1.410       .  A
C671        C672   1.411       .  A
C671        H676   1.084       .  S
C672        C673   1.411       .  A
C672        O677   1.371       .  S
C673        C674   1.401       .  A
C674        C675   1.398       .  A
C674        H678   1.084       .  S
C675        O679   1.373       .  S
O677        H681   0.991       .  S
O679        H680   0.992       .  S
C682        C683   1.410       .  A
C682        C687   1.402       .  A
C683        C684   1.413       .  A
C683        H688   1.084       .  S
C684        C685   1.412       .  A
C684        O689   1.372       .  S
C685        C686   1.408       .  A
C686        C687   1.399       .  A
C686        H690   1.084       .  S
C687        O691   1.369       .  S
O689        H693   0.992       .  S
O691        H692   0.992       .  S
C694        C695   1.402       .  A
C694        C699   1.412       .  A
C695        C696   1.402       .  A
C695        H700   1.084       .  S
C696        C697   1.410       .  A
C696        O701   1.372       .  S
C697        C698   1.406       .  A
C698        C699   1.410       .  A
C698        H702   1.083       .  S
C699        O703   1.372       .  S
O701        H705   0.992       .  S
O703        H704   0.992       .  S
C706        C707   1.400       .  A
C706        C711   1.422       .  A
C707        C708   1.404       .  A
C707        H712   1.084       .  S
C708        C709   1.416       .  A
C708        O713   1.373       .  S
C709        C710   1.397       .  A
C710        C711   1.399       .  A
C710        H714   1.084       .  S
C711        O715   1.373       .  S
O713        H717   0.992       .  S
O715        H716   0.992       .  S
C718        C719   1.408       .  A
C718        C723   1.408       .  A
C719        C720   1.401       .  A
C719        H724   1.083       .  S
C720        C721   1.407       .  A
C720        O725   1.372       .  S
C721        C722   1.410       .  A
C722        C723   1.399       .  A
C722        H726   1.083       .  S
C723        O727   1.372       .  S
O725        H729   0.992       .  S
O727        H728   0.992       .  S
