geometry optimzed in LAMMPS
_audit_creation_date              2020-11-30 
_audit_creation_method            'lammps2cif' 
_symmetry_space_group_name_H-M    'P1' 
_symmetry_Int_Tables_number       1 
_symmetry_cell_setting            triclinic 
loop_ 
_symmetry_equiv_pos_as_xyz 
  x,y,z 
_cell_length_a                    54.44548351 
_cell_length_b                    53.8823004829163 
_cell_length_c                    69.26452893608393 
_cell_angle_alpha                 90.0555169948744 
_cell_angle_beta                  89.49416315178108 
_cell_angle_gamma                 90.47936241943891 
loop_ 
_atom_site_label 
_atom_site_type_symbol 
_atom_site_fract_x 
_atom_site_fract_y 
_atom_site_fract_z 
_atom_site_charge 
N1          N  0.49000198  0.58283870  0.63650507    -0.27300
N2          N  0.47548202  0.58098858  0.65181571    -0.35200
C3          C  0.48412363  0.59601835  0.66575076     0.01000
C4          C  0.50517755  0.60782798  0.65884545     0.07000
C5          C  0.50823715  0.59898035  0.64021991    -0.06100
H6          H  0.47593352  0.59772248  0.67996595     0.07700
H7          H  0.52261417  0.60382517  0.62999742     0.08900
Cu8        Cu  0.44540292  0.55715953  0.65317111     0.44200
Cu9        Cu  0.48517664  0.56300323  0.61140145     0.42000
Cu10       Cu  0.43644402  0.51689458  0.61186958     0.43900
N11         N  0.41835128  0.52988609  0.65182181    -0.34700
N12         N  0.41545441  0.51463316  0.63703971    -0.29000
C13         C  0.39730375  0.49833462  0.64127273    -0.05100
C14         C  0.38819775  0.50374997  0.65954774     0.07100
C15         C  0.40199642  0.52390381  0.66573221     0.00900
H16         H  0.39115558  0.48371032  0.63170912     0.08600
H17         H  0.40076612  0.53313905  0.67957676     0.07700
N18         N  0.45939347  0.52373903  0.58829990    -0.36200
N19         N  0.47706559  0.54068365  0.58814690    -0.28300
C20         C  0.48825547  0.54072400  0.57078178    -0.03600
C21         C  0.47712557  0.52285931  0.55935841     0.05000
C22         C  0.45888668  0.51248116  0.57099595     0.03100
H23         H  0.50349225  0.55278572  0.56691387     0.08200
H24         H  0.44590221  0.49804429  0.56716929     0.07100
N25         N  0.48269346  0.45515194  0.37138624    -0.27300
N26         N  0.48494300  0.46607657  0.35437940    -0.35200
C27         C  0.47346221  0.45220418  0.34103411     0.01000
C28         C  0.46376533  0.43138665  0.35003647     0.07000
C29         C  0.47001644  0.43379360  0.36927450    -0.06100
H30         H  0.47291930  0.45655194  0.32579787     0.07700
H31         H  0.46547852  0.42112110  0.38090148     0.08900
Cu32       Cu  0.50591263  0.49771259  0.34967295     0.44200
Cu33       Cu  0.49656427  0.47034618  0.39655775     0.42000
Cu34       Cu  0.53867381  0.52216662  0.39089729     0.43900
N35         N  0.53408144  0.52359682  0.34767244    -0.34700
N36         N  0.54677478  0.53160283  0.36264977    -0.29000
C37         C  0.56538617  0.54605639  0.35634110    -0.05100
C38         C  0.56425261  0.54733567  0.33642474     0.07100
C39         C  0.54412027  0.53295800  0.33142250     0.00900
H40         H  0.57877590  0.55488361  0.36559546     0.08600
H41         H  0.53783924  0.52872693  0.31700472     0.07700
N42         N  0.52520113  0.51029884  0.41730173    -0.36200
N43         N  0.50990108  0.49131662  0.41930909    -0.28300
C44         C  0.50326120  0.48935615  0.43794720    -0.03600
C45         C  0.51489188  0.50807002  0.44829057     0.05000
C46         C  0.52872614  0.52094917  0.43462878     0.03100
H47         H  0.49008106  0.47585182  0.44328059     0.08200
H48         H  0.54002173  0.53727316  0.43689107     0.07100
N49         N  0.19830710  0.12371122  0.73609583    -0.27300
N50         N  0.18762421  0.14493185  0.73190060    -0.35200
C51         C  0.16653504  0.14017479  0.72258120     0.01000
C52         C  0.16366548  0.11467908  0.72106624     0.07000
C53         C  0.18416814  0.10485660  0.72982940    -0.06100
H54         H  0.15417514  0.15425928  0.71741828     0.07700
H55         H  0.18884639  0.08545794  0.73111069     0.08900
Cu56       Cu  0.20226312  0.17923052  0.73927083     0.44200
Cu57       Cu  0.23209351  0.12147180  0.74934685     0.42000
Cu58       Cu  0.26324094  0.17975995  0.76005823     0.43900
N59         N  0.22089117  0.21129614  0.74720747    -0.34700
N60         N  0.24367139  0.21165172  0.75369700    -0.29000
C61         C  0.25086569  0.23540141  0.75616693    -0.05100
C62         C  0.23148826  0.25057765  0.75139283     0.07100
C63         C  0.21276691  0.23472705  0.74586665     0.00900
H64         H  0.26869513  0.24116239  0.76139493     0.08600
H65         H  0.19479756  0.23985186  0.74073155     0.07700
N66         N  0.27705992  0.14508416  0.76702053    -0.36200
N67         N  0.26582095  0.12396907  0.76273522    -0.28300
C68         C  0.27914906  0.10496933  0.76933074    -0.03600
C69         C  0.29970315  0.11449951  0.77841802     0.05000
C70         C  0.29774682  0.14003419  0.77671684     0.03100
H71         H  0.27376384  0.08565743  0.76816275     0.08200
H72         H  0.31033024  0.15394588  0.78218211     0.07100
N73         N  0.19403824  0.40395451  0.76231341    -0.27300
N74         N  0.18351295  0.38258741  0.76701075    -0.35200
C75         C  0.16326843  0.38707425  0.77768370     0.01000
C76         C  0.16083473  0.41255635  0.77985687     0.07000
C77         C  0.18071700  0.42259092  0.76979657    -0.06100
H78         H  0.15150629  0.37270897  0.78366885     0.07700
H79         H  0.18575387  0.44197477  0.76852167     0.08900
Cu80       Cu  0.19808246  0.34820544  0.75997650     0.44200
Cu81       Cu  0.22696950  0.40698619  0.74710342     0.42000
Cu82       Cu  0.25929692  0.34961382  0.73901372     0.43900
N83         N  0.21837510  0.31660252  0.75398602    -0.34700
N84         N  0.24130668  0.31723490  0.74751842    -0.29000
C85         C  0.24969699  0.29387478  0.74611622    -0.05100
C86         C  0.23099559  0.27781989  0.75160412     0.07100
C87         C  0.21136955  0.29278922  0.75641280     0.00900
H88         H  0.26774245  0.28892304  0.74078601     0.08600
H89         H  0.19340986  0.28683714  0.76147603     0.07700
N90         N  0.27173126  0.38381622  0.72891895    -0.36200
N91         N  0.26003705  0.40485587  0.73203542    -0.28300
C92         C  0.27241629  0.42344538  0.72324628    -0.03600
C93         C  0.29281797  0.41363781  0.71394720     0.05000
C94         C  0.29172564  0.38841735  0.71790105     0.03100
H95         H  0.26653044  0.44256691  0.72317072     0.08200
H96         H  0.30444378  0.37434999  0.71308007     0.07100
N97         N  0.09774976  0.29964432  0.22813076    -0.27300
N98         N  0.11892245  0.31101171  0.22470353    -0.35200
C99         C  0.11498746  0.33101226  0.21357705     0.01000
C100        C  0.09004570  0.33241641  0.20989084     0.07000
C101        C  0.07973244  0.31218396  0.21942283    -0.06100
H102        H  0.12930198  0.34350069  0.20852704     0.07700
H103        H  0.06064563  0.30646511  0.21957767     0.08900
Cu104      Cu  0.15214833  0.29810420  0.23481652     0.44200
Cu105      Cu  0.09454396  0.26672002  0.24340050     0.42000
Cu106      Cu  0.15089849  0.23724796  0.25800672     0.43900
N107        N  0.18312335  0.28010755  0.24461913    -0.34700
N108        N  0.18289380  0.25742818  0.25194856    -0.29000
C109        C  0.20617172  0.25062749  0.25544196    -0.05100
C110        C  0.22161043  0.27016387  0.25049488     0.07100
C111        C  0.20643266  0.28856105  0.24374845     0.00900
H112        H  0.21142592  0.23296164  0.26148527     0.08600
H113        H  0.21195533  0.30649589  0.23810888     0.07700
N114        N  0.11607539  0.22234660  0.26354871    -0.36200
N115        N  0.09564654  0.23312876  0.25788401    -0.28300
C116        C  0.07629868  0.21894448  0.26309358    -0.03600
C117        C  0.08479992  0.19820961  0.27266139     0.05000
C118        C  0.11016669  0.20106634  0.27276845     0.03100
H119        H  0.05737712  0.22362947  0.26031553     0.08200
H120        H  0.12338794  0.18845538  0.27883045     0.07100
N121        N  0.37253191  0.30190877  0.27467830    -0.27300
N122        N  0.35203917  0.31495816  0.27525469    -0.35200
C123        C  0.35657483  0.33670977  0.28415472     0.01000
C124        C  0.38094994  0.33722207  0.28965787     0.07000
C125        C  0.39047440  0.31484235  0.28347725    -0.06100
H126        H  0.34303701  0.35097360  0.28663853     0.07700
H127        H  0.40926221  0.30870932  0.28475179     0.08900
Cu128      Cu  0.31834493  0.30251934  0.26480406     0.44200
Cu129      Cu  0.37624110  0.26802767  0.26066375     0.42000
Cu130      Cu  0.31973631  0.24172331  0.24361669     0.43900
N131        N  0.28686983  0.28327797  0.25638258    -0.34700
N132        N  0.28752384  0.26027757  0.24974543    -0.29000
C133        C  0.26446132  0.25204635  0.24690641    -0.05100
C134        C  0.24852526  0.27092116  0.25164497     0.07100
C135        C  0.26327639  0.29052812  0.25750845     0.00900
H136        H  0.25969843  0.23387507  0.24135266     0.08600
H137        H  0.25728833  0.30848122  0.26263323     0.07700
N138        N  0.35386110  0.22778054  0.23640603    -0.36200
N139        N  0.37477824  0.23702982  0.24285254    -0.28300
C140        C  0.39351312  0.22432221  0.23489233    -0.03600
C141        C  0.38385301  0.20632080  0.22270242     0.05000
C142        C  0.35863297  0.20913319  0.22410373     0.03100
H143        H  0.41271126  0.22849324  0.23729097     0.08200
H144        H  0.34465460  0.19855997  0.21665099     0.07100
N145        N  0.04115791  0.51613706  0.85622505    -0.27300
N146        N  0.03994945  0.53192008  0.84168114    -0.35200
C147        C  0.05615733  0.52534331  0.82793880     0.01000
C148        C  0.06816942  0.50425679  0.83397628     0.07000
C149        C  0.05811406  0.49884140  0.85198082    -0.06100
H150        H  0.05870683  0.53506473  0.81440363     0.07700
H151        H  0.06307296  0.48377221  0.86145325     0.08900
Cu152      Cu  0.01623788  0.56155789  0.84064590     0.44200
Cu153      Cu  0.02045879  0.52023368  0.88140736     0.42000
Cu154      Cu  0.97990910  0.57441783  0.88260662     0.43900
N155        N  0.99038974  0.58932275  0.84168209    -0.34700
N156        N  0.97661874  0.59398178  0.85702508    -0.29000
C157        C  0.96084955  0.61223632  0.85274984    -0.05100
C158        C  0.96506834  0.61947462  0.83379231     0.07100
C159        C  0.98396420  0.60452832  0.82727933     0.00900
H160        H  0.94732228  0.61960174  0.86269685     0.08600
H161        H  0.99200758  0.60415639  0.81294619     0.07700
N162        N  0.98608370  0.55127946  0.90593844    -0.36200
N163        N  0.00036315  0.53155304  0.90550457    -0.28300
C164        C  0.00030102  0.52106223  0.92312130    -0.03600
C165        C  0.98527671  0.53483342  0.93530656     0.05000
C166        C  0.97660647  0.55384331  0.92379853     0.03100
H167        H  0.01058774  0.50464703  0.92670037     0.08200
H168        H  0.96454933  0.56876377  0.92804203     0.07100
N169        N  0.98796150  0.44505183  0.12769379    -0.27300
N170        N  0.97120067  0.44645695  0.14153836    -0.35200
C171        C  0.97807578  0.43254650  0.15654029     0.01000
C172        C  0.00032919  0.42169703  0.15204969     0.07000
C173        C  0.00615605  0.43013738  0.13362062    -0.06100
H174        H  0.96759308  0.43067025  0.16980263     0.07700
H175        H  0.02208061  0.42535746  0.12498521     0.08900
Cu176      Cu  0.93988095  0.46744900  0.14007721     0.44200
Cu177      Cu  0.98402093  0.46312801  0.10143594     0.42000
Cu178      Cu  0.93105763  0.50526414  0.09860007     0.43900
N179        N  0.91211734  0.49297088  0.13821888    -0.34700
N180        N  0.90927606  0.50784239  0.12328262    -0.29000
C181        C  0.89112717  0.52390051  0.12733695    -0.05100
C182        C  0.88203266  0.51860705  0.14566521     0.07100
C183        C  0.89578815  0.49885358  0.15206834     0.00900
H184        H  0.88519948  0.53846232  0.11774692     0.08600
H185        H  0.89483923  0.49013077  0.16612155     0.07700
N186        N  0.95488207  0.49749503  0.07581160    -0.36200
N187        N  0.97386108  0.48240826  0.07682774    -0.28300
C188        C  0.98497047  0.48140121  0.05943820    -0.03600
C189        C  0.97246083  0.49658602  0.04674332     0.05000
C190        C  0.95345917  0.50644631  0.05774924     0.03100
H191        H  0.00099124  0.47030277  0.05639805     0.08200
H192        H  0.93937924  0.51905974  0.05307132     0.07100
N193        N  0.70484636  0.62241291  0.25953281    -0.27300
N194        N  0.69013892  0.64181895  0.25911693    -0.35200
C195        C  0.67000071  0.63679552  0.26985579     0.01000
C196        C  0.67245249  0.61330128  0.27756696     0.07000
C197        C  0.69473292  0.60474028  0.27079918    -0.06100
H198        H  0.65513368  0.64961516  0.27242831     0.07700
H199        H  0.70289304  0.58689584  0.27368009     0.08900
Cu200      Cu  0.69956579  0.67528373  0.24606436     0.44200
Cu201      Cu  0.73750330  0.62012306  0.24429617     0.42000
Cu202      Cu  0.76065771  0.67711161  0.22471336     0.43900
N203        N  0.71767790  0.70781999  0.23811054    -0.34700
N204        N  0.74058328  0.70842692  0.23158522    -0.29000
C205        C  0.74816117  0.73217572  0.23026721    -0.05100
C206        C  0.72899555  0.74721588  0.23593569     0.07100
C207        C  0.70989912  0.73124046  0.24072517     0.00900
H208        H  0.76629942  0.73803461  0.22555650     0.08600
H209        H  0.69211583  0.73621373  0.24657749     0.07700
N210        N  0.77523492  0.64282806  0.21782183    -0.36200
N211        N  0.76676298  0.62182877  0.22517438    -0.28300
C212        C  0.77875006  0.60275688  0.21702785    -0.03600
C213        C  0.79566354  0.61215129  0.20375930     0.05000
C214        C  0.79288304  0.63772323  0.20476435     0.03100
H215        H  0.77469147  0.58349273  0.22013509     0.08200
H216        H  0.80249272  0.65170782  0.19637440     0.07100
N217        N  0.69558457  0.90134935  0.23902650    -0.27300
N218        N  0.68489849  0.88176903  0.23116076    -0.35200
C219        C  0.66576542  0.88938276  0.22056111     0.01000
C220        C  0.66435408  0.91504787  0.22192462     0.07000
C221        C  0.68359697  0.92188592  0.23378819    -0.06100
H222        H  0.65400155  0.87713972  0.21231922     0.07700
H223        H  0.68917929  0.94049784  0.23776098     0.08900
Cu224      Cu  0.69845784  0.84615319  0.23450734     0.44200
Cu225      Cu  0.72747445  0.89979177  0.25479322     0.42000
Cu226      Cu  0.76242025  0.84375850  0.25095359     0.43900
N227        N  0.71829162  0.81371140  0.23783387    -0.34700
N228        N  0.74180183  0.81300709  0.24252077    -0.29000
C229        C  0.74924235  0.78926531  0.24230015    -0.05100
C230        C  0.72940275  0.77437150  0.23757981     0.07100
C231        C  0.71006150  0.79039758  0.23494462     0.00900
H232        H  0.76756200  0.78324595  0.24586553     0.08600
H233        H  0.69148972  0.78553673  0.23088216     0.07700
N234        N  0.77576039  0.87600165  0.26377179    -0.36200
N235        N  0.76211047  0.89596522  0.26615601    -0.28300
C236        C  0.77464304  0.91289725  0.27644278    -0.03600
C237        C  0.79741617  0.90328075  0.28049989     0.05000
C238        C  0.79763403  0.87989170  0.27224602     0.03100
H239        H  0.76770899  0.93090777  0.28059718     0.08200
H240        H  0.81219757  0.86639712  0.27297417     0.07100
N241        N  0.54638977  0.00985109  0.13626734    -0.27300
N242        N  0.54473563  0.02268130  0.15248584    -0.35200
C243        C  0.55909957  0.01221151  0.16581476     0.01000
C244        C  0.57034604  0.99168575  0.15765950     0.07000
C245        C  0.56180322  0.99078572  0.13887218    -0.06100
H246        H  0.56067397  0.01878504  0.18051268     0.07700
H247        H  0.56640639  0.97732680  0.12785449     0.08900
Cu248      Cu  0.52210362  0.05303931  0.15633002     0.44200
Cu249      Cu  0.52720752  0.01861509  0.11153780     0.42000
Cu250      Cu  0.48310293  0.06842295  0.11642519     0.43900
N251        N  0.49612088  0.08088496  0.15745172    -0.34700
N252        N  0.48146946  0.08613096  0.14294225    -0.29000
C253        C  0.46606383  0.10424351  0.14839257    -0.05100
C254        C  0.47128264  0.11082646  0.16728116     0.07100
C255        C  0.49052229  0.09561637  0.17251523     0.00900
H256        H  0.45217203  0.11205421  0.13919218     0.08600
H257        H  0.49942993  0.09481230  0.18639574     0.07700
N258        N  0.48958454  0.04936849  0.09094242    -0.36200
N259        N  0.50582640  0.03141931  0.08911914    -0.28300
C260        C  0.50636132  0.02376559  0.07065738    -0.03600
C261        C  0.48963542  0.03757716  0.06027507     0.05000
C262        C  0.47929447  0.05357542  0.07369824     0.03100
H263        H  0.51820079  0.00925680  0.06527824     0.08200
H264        H  0.46577914  0.06775439  0.07110927     0.07100
N265        N  0.49290199  0.96403596  0.86518187    -0.27300
N266        N  0.47793149  0.96787507  0.85062301    -0.35200
C267        C  0.48449320  0.95330696  0.83575361     0.01000
C268        C  0.50468515  0.93955379  0.84115841     0.07000
C269        C  0.50953435  0.94691546  0.85995114    -0.06100
H270        H  0.47531125  0.95302812  0.82197201     0.07700
H271        H  0.52377124  0.94006415  0.86929041     0.08900
Cu272      Cu  0.44982461  0.99330846  0.85146367     0.44200
Cu273      Cu  0.48917185  0.98220605  0.89137816     0.42000
Cu274      Cu  0.44184365  0.03013209  0.89465805     0.43900
N275        N  0.42552621  0.02236514  0.85376717    -0.34700
N276        N  0.42285105  0.03637607  0.86929195    -0.29000
C277        C  0.40667966  0.05444682  0.86544344    -0.05100
C278        C  0.39874083  0.05152602  0.84658517     0.07100
C279        C  0.41112373  0.03095761  0.83970464     0.00900
H280        H  0.40111470  0.06857056  0.87565244     0.08600
H281        H  0.41033673  0.02311132  0.82534502     0.07700
N282        N  0.46371533  0.01923046  0.91748758    -0.36200
N283        N  0.48085686  0.00206309  0.91616979    -0.28300
C284        C  0.49149318  0.99939672  0.93344838    -0.03600
C285        C  0.48058070  0.01564350  0.94639379     0.05000
C286        C  0.46299164  0.02789802  0.93569915     0.03100
H287        H  0.50584935  0.98620030  0.93633186     0.08200
H288        H  0.45056672  0.04213873  0.94066897     0.07100
N289        N  0.03820481  0.03919408  0.63005245    -0.27300
N290        N  0.03608318  0.02360796  0.64467102    -0.35200
C291        C  0.05023181  0.03161428  0.65922423     0.01000
C292        C  0.06187765  0.05342423  0.65353946     0.07000
C293        C  0.05377584  0.05761606  0.63489665    -0.06100
H294        H  0.05154843  0.02233751  0.67300654     0.07700
H295        H  0.05893392  0.07275303  0.62541470     0.08900
Cu296      Cu  0.01337449  0.99272342  0.64437970     0.44200
Cu297      Cu  0.01984708  0.03421391  0.60430659     0.42000
Cu298      Cu  0.97535053  0.98307755  0.60246851     0.43900
N299        N  0.98734314  0.96477443  0.64229772    -0.34700
N300        N  0.97269031  0.96165062  0.62736573    -0.29000
C301        C  0.95722474  0.94258736  0.63110514    -0.05100
C302        C  0.96262464  0.93316143  0.64919800     0.07100
C303        C  0.98182991  0.94772630  0.65581237     0.00900
H304        H  0.94329507  0.93594050  0.62128358     0.08600
H305        H  0.99079405  0.94648237  0.66964765     0.07700
N306        N  0.98504844  0.00515671  0.57895374    -0.36200
N307        N  0.00123181  0.02354998  0.57971053    -0.28300
C308        C  0.00466071  0.03284600  0.56189836    -0.03600
C309        C  0.98998512  0.01968506  0.54917240     0.05000
C310        C  0.97772959  0.00231576  0.56057954     0.03100
H311        H  0.01732695  0.04781523  0.55852487     0.08200
H312        H  0.96514215  0.98797378  0.55584255     0.07100
N313        N  0.92971084  0.99330530  0.35195986    -0.27300
N314        N  0.93787418  0.00361021  0.33579550    -0.35200
C315        C  0.92642698  0.99290241  0.32075982     0.01000
C316        C  0.91006259  0.97521452  0.32782170     0.07000
C317        C  0.91267853  0.97601017  0.34767665    -0.06100
H318        H  0.92913650  0.99830431  0.30585099     0.07700
H319        H  0.90281383  0.96498385  0.35829234     0.08900
Cu320      Cu  0.96291679  0.03295043  0.33498256     0.44200
Cu321      Cu  0.94157203  0.00339082  0.37917625     0.42000
Cu322      Cu  0.98702111  0.05251316  0.38115807     0.43900
N323        N  0.98814542  0.06182245  0.33822010    -0.34700
N324        N  0.99736787  0.06843350  0.35507174    -0.29000
C325        C  0.01412163  0.08657441  0.35228672    -0.05100
C326        C  0.01542270  0.09183730  0.33274561     0.07100
C327        C  0.99856797  0.07587833  0.32427258     0.00900
H328        H  0.02453155  0.09532775  0.36368984     0.08600
H329        H  0.99468512  0.07408873  0.30904107     0.07700
N330        N  0.97360388  0.03403601  0.40531139    -0.36200
N331        N  0.95688775  0.01616893  0.40457460    -0.28300
C332        C  0.95207838  0.00807262  0.42256589    -0.03600
C333        C  0.96649838  0.02147696  0.43535129     0.05000
C334        C  0.97992031  0.03778773  0.42380573     0.03100
H335        H  0.93918693  0.99330537  0.42595072     0.08200
H336        H  0.99317029  0.05157690  0.42840687     0.07100
N337        N  0.86685194  0.80307473  0.72225550    -0.27300
N338        N  0.84575173  0.81243594  0.71660035    -0.35200
C339        C  0.85023335  0.83109351  0.70417711     0.01000
C340        C  0.87544139  0.83377306  0.70186090     0.07000
C341        C  0.88535893  0.81564869  0.71362803    -0.06100
H342        H  0.83605306  0.84198983  0.69750699     0.07700
H343        H  0.90458236  0.81159951  0.71565341     0.08900
Cu344      Cu  0.81167875  0.79944467  0.72569354     0.44200
Cu345      Cu  0.86946849  0.77329666  0.74112770     0.42000
Cu346      Cu  0.81214665  0.74429685  0.75535665     0.43900
N347        N  0.78021619  0.78138441  0.73538268    -0.34700
N348        N  0.78054510  0.76046579  0.74533739    -0.29000
C349        C  0.75737129  0.75293949  0.74888167    -0.05100
C350        C  0.74180336  0.77014370  0.74101080     0.07100
C351        C  0.75675165  0.78805893  0.73269632     0.00900
H352        H  0.75228300  0.73675965  0.75729598     0.08600
H353        H  0.75103886  0.80468255  0.72528868     0.07700
N354        N  0.84586640  0.73280412  0.76510266    -0.36200
N355        N  0.86690725  0.74320462  0.75977211    -0.28300
C356        C  0.88536679  0.73136785  0.76852148    -0.03600
C357        C  0.87543955  0.71270154  0.78003001     0.05000
C358        C  0.85030451  0.71423592  0.77749694     0.03100
H359        H  0.90455823  0.73628874  0.76680848     0.08200
H360        H  0.83622185  0.70257542  0.78397054     0.07100
N361        N  0.59472006  0.80448761  0.77227504    -0.27300
N362        N  0.61660244  0.81410351  0.77581491    -0.35200
C363        C  0.61393774  0.83452493  0.78679073     0.01000
C364        C  0.58908464  0.83804857  0.79010647     0.07000
C365        C  0.57748173  0.81863518  0.78065846    -0.06100
H366        H  0.62895149  0.84616157  0.79164612     0.07700
H367        H  0.55796538  0.81481027  0.78011043     0.08900
Cu368      Cu  0.64858633  0.79918107  0.76475539     0.44200
Cu369      Cu  0.58939109  0.77235087  0.75658178     0.42000
Cu370      Cu  0.64333876  0.74043666  0.73876852     0.43900
N371        N  0.67775989  0.78097761  0.75199939    -0.34700
N372        N  0.67615594  0.75904436  0.74347684    -0.29000
C373        C  0.69876865  0.75187805  0.73800774    -0.05100
C374        C  0.71511245  0.77048077  0.74295641     0.07100
C375        C  0.70129697  0.78862918  0.75176410     0.00900
H376        H  0.70294634  0.73452917  0.73086930     0.08600
H377        H  0.70793867  0.80570400  0.75816876     0.07700
N378        N  0.60770897  0.72836847  0.73402301    -0.36200
N379        N  0.58810049  0.73995039  0.74071246    -0.28300
C380        C  0.56783394  0.72777711  0.73494302    -0.03600
C381        C  0.57498799  0.70763102  0.72392643     0.05000
C382        C  0.60042887  0.70860661  0.72363293     0.03100
H383        H  0.54927449  0.73361412  0.73813869     0.08200
H384        H  0.61279977  0.69593383  0.71642567     0.07100
C385        C  0.88872019  0.85218886  0.68961533    -0.05300
C386        C  0.87615717  0.86547451  0.67533713    -0.05200
C387        C  0.88832182  0.88333475  0.66411483    -0.23400
C388        C  0.91328943  0.88840395  0.66700823     0.18800
C389        C  0.92620173  0.87507342  0.68119848     0.16100
C390        C  0.91391354  0.85696037  0.69229608    -0.18400
C391        C  0.95109825  0.88040587  0.68429252    -0.20200
C392        C  0.96293942  0.89912010  0.67371666    -0.12800
C393        C  0.95022246  0.91261002  0.65967126     0.03900
C394        C  0.92543213  0.90688714  0.65619186    -0.24900
H395        H  0.85686410  0.86207675  0.67272007     0.09000
H396        H  0.87813122  0.89334078  0.65329294     0.12600
H397        H  0.92389024  0.84708392  0.70329683     0.12500
H398        H  0.96132380  0.87034658  0.69506392     0.12300
H399        H  0.98212618  0.90299637  0.67651639     0.12800
H400        H  0.91538132  0.91731267  0.64552638     0.14700
C401        C  0.98888776  0.02253607  0.52789319    -0.05300
C402        C  0.00721476  0.03605221  0.51791688    -0.05200
C403        C  0.00648038  0.03850414  0.49786491    -0.23400
C404        C  0.98737519  0.02753615  0.48737216     0.18800
C405        C  0.96883136  0.01394989  0.49719958     0.16100
C406        C  0.96969294  0.01153374  0.51735483    -0.18400
C407        C  0.94972818  0.00298814  0.48669409    -0.20200
C408        C  0.94900940  0.00543140  0.46663365    -0.12800
C409        C  0.96736421  0.01890737  0.45666394     0.03900
C410        C  0.98654320  0.02991942  0.46722188    -0.24900
H411        H  0.02238382  0.04453654  0.52552152     0.09000
H412        H  0.02090056  0.04893851  0.49056469     0.12600
H413        H  0.95530117  0.00122898  0.52477406     0.12500
H414        H  0.93531332  0.99254293  0.49398886     0.12300
H415        H  0.93388016  0.99690532  0.45900655     0.12800
H416        H  0.00098658  0.04018001  0.45983736     0.14700
C417        C  0.57724630  0.85815084  0.80119895    -0.05300
C418        C  0.58960129  0.87001178  0.81640043    -0.05200
C419        C  0.57792853  0.88839459  0.82730565    -0.23400
C420        C  0.55382215  0.89539263  0.82301523     0.18800
C421        C  0.54151914  0.88391898  0.80745222     0.16100
C422        C  0.55323041  0.86533039  0.79674798    -0.18400
C423        C  0.51762863  0.89112281  0.80287967    -0.20200
C424        C  0.50585289  0.90935535  0.81375101    -0.12800
C425        C  0.51766891  0.92064231  0.82948708     0.03900
C426        C  0.54177041  0.91359126  0.83400855    -0.24900
H427        H  0.60809803  0.86470752  0.82012631     0.09000
H428        H  0.58769881  0.89703828  0.83913845     0.12600
H429        H  0.54367260  0.85659100  0.78484531     0.12500
H430        H  0.50797382  0.88254656  0.79095580     0.12300
H431        H  0.48726454  0.91424022  0.81000273     0.12800
H432        H  0.55123367  0.92235114  0.84594063     0.14700
C433        C  0.48617794  0.01862919  0.96719568    -0.05300
C434        C  0.50767315  0.00839716  0.97487810    -0.05200
C435        C  0.51270710  0.01034634  0.99453891    -0.23400
C436        C  0.49633548  0.02254250  0.00694502     0.18800
C437        C  0.47486373  0.03325721  0.99941077     0.16100
C438        C  0.46994468  0.03129818  0.97960313    -0.18400
C439        C  0.45855523  0.04552588  0.01186422    -0.20200
C440        C  0.46338195  0.04697532  0.03161891    -0.12800
C441        C  0.48459273  0.03616776  0.03930070     0.03900
C442        C  0.50105574  0.02405959  0.02677373    -0.24900
H443        H  0.52074244  0.99885562  0.96573372     0.09000
H444        H  0.52934655  0.00216244  0.00005616     0.12600
H445        H  0.45325296  0.03923767  0.97401040     0.12500
H446        H  0.44198889  0.05386269  0.00635431     0.12300
H447        H  0.45028467  0.05631368  0.04087846     0.12800
H448        H  0.51766112  0.01591345  0.03234689     0.14700
C449        C  0.81660141  0.91512686  0.29217801    -0.05300
C450        C  0.81135814  0.92209826  0.31126504    -0.05200
C451        C  0.82913355  0.93411812  0.32236459    -0.23400
C452        C  0.85215975  0.94001469  0.31429697     0.18800
C453        C  0.85743943  0.93337262  0.29494105     0.16100
C454        C  0.83974441  0.92050588  0.28409740    -0.18400
C455        C  0.88010111  0.94020979  0.28667379    -0.20200
C456        C  0.89724852  0.95374645  0.29740007    -0.12800
C457        C  0.89225132  0.96021172  0.31668479     0.03900
C458        C  0.86974156  0.95298597  0.32511789    -0.24900
H459        H  0.79349180  0.91810340  0.31759305     0.09000
H460        H  0.82472228  0.93920379  0.33712313     0.12600
H461        H  0.84360789  0.91541558  0.26923530     0.12500
H462        H  0.88441697  0.93540909  0.27184119     0.12300
H463        H  0.91451374  0.95903779  0.29063635     0.12800
H464        H  0.86551798  0.95821296  0.33988146     0.14700
C465        C  0.64707070  0.93192970  0.21217676    -0.05300
C466        C  0.64362439  0.95611386  0.21928942    -0.05200
C467        C  0.62793061  0.97249511  0.21002325    -0.23400
C468        C  0.61542943  0.96506887  0.19338883     0.18800
C469        C  0.61870908  0.94083956  0.18603156     0.16100
C470        C  0.63438565  0.92435212  0.19553892    -0.18400
C471        C  0.60636447  0.93361859  0.16922463    -0.20200
C472        C  0.59084342  0.95021180  0.15987111    -0.12800
C473        C  0.58725582  0.97425658  0.16722777     0.03900
C474        C  0.59973217  0.98153613  0.18400568    -0.24900
H475        H  0.65291788  0.96241073  0.23216293     0.09000
H476        H  0.62560528  0.99099982  0.21586470     0.12600
H477        H  0.63703443  0.90587034  0.18976007     0.12500
H478        H  0.60867147  0.91514049  0.16333411     0.12300
H479        H  0.58135958  0.94403477  0.14704681     0.12800
H480        H  0.59746830  0.00010543  0.18971554     0.14700
C481        C  0.86332852  0.53224168  0.15691528    -0.05300
C482        C  0.84946424  0.51993599  0.17124356    -0.05200
C483        C  0.83288634  0.53297187  0.18283214    -0.23400
C484        C  0.83019330  0.55863702  0.18049918     0.18800
C485        C  0.84387182  0.57113909  0.16599845     0.16100
C486        C  0.86012484  0.55781972  0.15413624    -0.18400
C487        C  0.84145349  0.59684160  0.16388332    -0.20200
C488        C  0.82582257  0.61010425  0.17612858    -0.12800
C489        C  0.81215785  0.59793139  0.19069133     0.03900
C490        C  0.81438195  0.57204492  0.19265123    -0.24900
H491        H  0.85149000  0.50018327  0.17352281     0.09000
H492        H  0.82249149  0.52305236  0.19383193     0.12600
H493        H  0.87092662  0.56752303  0.14325688     0.12500
H494        H  0.85181524  0.60674346  0.15285673     0.12300
H495        H  0.82449681  0.62992681  0.17406661     0.12800
H496        H  0.80419001  0.56224313  0.20379683     0.14700
C497        C  0.95177892  0.63826469  0.82248440    -0.05300
C498        C  0.96341225  0.64991189  0.80669124    -0.05200
C499        C  0.95087799  0.66710508  0.79550422    -0.23400
C500        C  0.92636339  0.67275159  0.79976580     0.18800
C501        C  0.91440837  0.66112602  0.81558375     0.16100
C502        C  0.92727612  0.64415352  0.82698426    -0.18400
C503        C  0.88970929  0.66645574  0.81954611    -0.20200
C504        C  0.87698873  0.68311359  0.80792473    -0.12800
C505        C  0.88881943  0.69494616  0.79228197     0.03900
C506        C  0.91357849  0.68966943  0.78833699    -0.24900
H507        H  0.98232851  0.64585775  0.80303181     0.09000
H508        H  0.96031150  0.67584433  0.78342885     0.12600
H509        H  0.91802526  0.63507514  0.83899448     0.12500
H510        H  0.88020912  0.65768275  0.83157392     0.12300
H511        H  0.85796610  0.68696066  0.81136196     0.12800
H512        H  0.92283608  0.69835898  0.77616365     0.14700
C513        C  0.97993311  0.53052066  0.95612614    -0.05300
C514        C  0.96112812  0.54370208  0.96558103    -0.05200
C515        C  0.95602282  0.53976912  0.98514381    -0.23400
C516        C  0.96959489  0.52255225  0.99568960     0.18800
C517        C  0.98855186  0.50922439  0.98641869     0.16100
C518        C  0.99360276  0.51326935  0.96675054    -0.18400
C519        C  0.00214137  0.49204052  0.99697987    -0.20600
C520        C  0.99693324  0.48799933  0.01651890    -0.12800
C521        C  0.97803204  0.50107583  0.02595620     0.03900
C522        C  0.96447168  0.51843324  0.01533225    -0.24900
H523        H  0.95011015  0.55697629  0.95788639     0.09000
H524        H  0.94138689  0.55015501  0.99200656     0.12600
H525        H  0.00829768  0.50305638  0.95984882     0.12500
H526        H  0.01677088  0.48164629  0.99011657     0.12300
H527        H  0.00774321  0.47447726  0.02412446     0.12800
H528        H  0.94992855  0.52884891  0.02223243     0.14700
C529        C  0.39731187  0.18853688  0.21024194    -0.05300
C530        C  0.38573644  0.17791514  0.19411049    -0.05200
C531        C  0.39806813  0.16094341  0.18237155    -0.23400
C532        C  0.42218096  0.15409095  0.18659213     0.18800
C533        C  0.43405606  0.16457306  0.20276729     0.16100
C534        C  0.42162458  0.18186974  0.21440267    -0.18400
C535        C  0.45807330  0.15737932  0.20710371    -0.20200
C536        C  0.47015375  0.13990197  0.19558530    -0.12800
C537        C  0.45853683  0.12947123  0.17940729     0.03900
C538        C  0.43451703  0.13678327  0.17497821    -0.24900
H539        H  0.36716464  0.18288450  0.19038406     0.09000
H540        H  0.38868671  0.15310553  0.17001212     0.12600
H541        H  0.43072288  0.18973475  0.22687729     0.12500
H542        H  0.46749035  0.16519321  0.21945191     0.12300
H543        H  0.48870350  0.13475621  0.19925494     0.12800
H544        H  0.42517459  0.12868313  0.16270875     0.14700
C545        C  0.01401123  0.40416215  0.16427028    -0.05300
C546        C  0.00136966  0.39025724  0.17841892    -0.05200
C547        C  0.01381392  0.37366044  0.19015393    -0.23400
C548        C  0.03920453  0.37071632  0.18806739     0.18800
C549        C  0.05224449  0.38471222  0.17402868     0.16100
C550        C  0.03953359  0.40125128  0.16209817    -0.18400
C551        C  0.07774154  0.38188129  0.17221989    -0.20200
C552        C  0.09011029  0.36514794  0.18404389    -0.12800
C553        C  0.07718813  0.35083374  0.19780913     0.03900
C554        C  0.05169631  0.35390480  0.19978144    -0.24900
H555        H  0.98169667  0.39188680  0.18027804     0.09000
H556        H  0.00353895  0.36306609  0.20084000     0.12600
H557        H  0.04951682  0.41204178  0.15136160     0.12500
H558        H  0.08809936  0.39249475  0.16159713     0.12300
H559        H  0.10973261  0.36311446  0.18212766     0.12800
H560        H  0.04149627  0.34333411  0.21051307     0.14700
C561        C  0.06971403  0.17774846  0.28098412    -0.05300
C562        C  0.04638506  0.17238318  0.27341343    -0.05200
C563        C  0.03152108  0.15382725  0.28154927    -0.23400
C564        C  0.03952024  0.14052166  0.29764936     0.18800
C565        C  0.06296976  0.14568990  0.30539472     0.16100
C566        C  0.07807121  0.16399571  0.29683897    -0.18400
C567        C  0.07066663  0.13284691  0.32183589    -0.20200
C568        C  0.05512942  0.11540741  0.33070676    -0.12800
C569        C  0.03184742  0.11007441  0.32307469     0.03900
C570        C  0.02427219  0.12248797  0.30635143    -0.24900
H571        H  0.03960462  0.18249210  0.26108467     0.09000
H572        H  0.01362286  0.15014125  0.27541564     0.12600
H573        H  0.09591573  0.16809526  0.30292386     0.12500
H574        H  0.08854624  0.13654049  0.32799709     0.12300
H575        H  0.06144055  0.10588837  0.34347740     0.12800
H576        H  0.00625557  0.11865972  0.30046486     0.14700
C577        C  0.14211145  0.42609122  0.79144382    -0.05300
C578        C  0.12676819  0.41335055  0.80462892    -0.05200
C579        C  0.10964509  0.42613848  0.81595045    -0.23400
C580        C  0.10739445  0.45192980  0.81425092     0.18800
C581        C  0.12251321  0.46491622  0.80092113     0.16100
C582        C  0.13974410  0.45197658  0.78967256    -0.18400
C583        C  0.12007330  0.49065395  0.79897287    -0.20200
C584        C  0.10257351  0.50336278  0.80991271    -0.12800
C585        C  0.08737502  0.49065816  0.82317198     0.03900
C586        C  0.09010244  0.46491703  0.82546508    -0.24900
H587        H  0.12815042  0.39348430  0.80646529     0.09000
H588        H  0.09817215  0.41584184  0.82604037     0.12600
H589        H  0.15112383  0.46214180  0.77946199     0.12500
H590        H  0.13154796  0.50093062  0.78887158     0.12300
H591        H  0.10100853  0.52323279  0.80803509     0.12800
H592        H  0.07833250  0.45491394  0.83553061     0.14700
C593        C  0.07927898  0.06875714  0.66489030    -0.05300
C594        C  0.08480602  0.09328626  0.65933838    -0.05200
C595        C  0.10161834  0.10758276  0.66976780    -0.23400
C596        C  0.11340151  0.09753863  0.68584200     0.18800
C597        C  0.10783971  0.07298174  0.69166040     0.16100
C598        C  0.09072591  0.05884892  0.68126141    -0.18400
C599        C  0.11989310  0.06276151  0.70754187    -0.20200
C600        C  0.13781473  0.07649247  0.71723519    -0.12800
C601        C  0.14371438  0.10080436  0.71142105     0.03900
C602        C  0.13107418  0.11140851  0.69591029    -0.24900
H603        H  0.07609343  0.10154717  0.64695538     0.09000
H604        H  0.10562379  0.12639147  0.66511466     0.12600
H605        H  0.08688835  0.03992817  0.68567630     0.12500
H606        H  0.11578018  0.04399849  0.71225397     0.12300
H607        H  0.14709373  0.06805653  0.72929905     0.12800
H608        H  0.13561228  0.13008414  0.69121352     0.14700
C609        C  0.38121713  0.06700319  0.83578256    -0.05300
C610        C  0.37636808  0.09154374  0.84146032    -0.05200
C611        C  0.36006306  0.10613618  0.83097200    -0.23400
C612        C  0.34812971  0.09633080  0.81475729     0.18800
C613        C  0.35279150  0.07161835  0.80904431     0.16100
C614        C  0.36933900  0.05722653  0.81949194    -0.18400
C615        C  0.34060913  0.06155046  0.79308859    -0.20200
C616        C  0.32360087  0.07567905  0.78305011    -0.12800
C617        C  0.31869291  0.10023244  0.78861016     0.03900
C618        C  0.33131104  0.11060525  0.80435078    -0.24900
H619        H  0.38540324  0.09959585  0.85386200     0.09000
H620        H  0.35669743  0.12503141  0.83559775     0.12600
H621        H  0.37258283  0.03823291  0.81507944     0.12500
H622        H  0.34402006  0.04264468  0.78850244     0.12300
H623        H  0.31430420  0.06736931  0.77086502     0.12800
H624        H  0.32748665  0.12944892  0.80888079     0.14700
C625        C  0.65532729  0.60033358  0.29065299    -0.05300
C626        C  0.66395416  0.58951681  0.30767910    -0.05200
C627        C  0.64769984  0.57742324  0.32030005    -0.23400
C628        C  0.62271903  0.57539113  0.31574565     0.18800
C629        C  0.61406668  0.58562777  0.29830103     0.16100
C630        C  0.63036755  0.59847539  0.28604282    -0.18400
C631        C  0.58930920  0.58266990  0.29335861    -0.20200
C632        C  0.57319408  0.56987886  0.30566718    -0.12800
C633        C  0.58146224  0.56033206  0.32328188     0.03900
C634        C  0.60628211  0.56314300  0.32825101    -0.24900
H635        H  0.68322083  0.59082945  0.31135338     0.09000
H636        H  0.65467438  0.56953096  0.33352887     0.12600
H637        H  0.62381106  0.60655260  0.27273185     0.12500
H638        H  0.58243049  0.59018807  0.27996734     0.12300
H639        H  0.55412487  0.56788277  0.30158998     0.12800
H640        H  0.61289722  0.55540041  0.34165710     0.14700
C641        C  0.45006299  0.41090000  0.34086510    -0.05300
C642        C  0.45401324  0.38623323  0.34645411    -0.05200
C643        C  0.44162485  0.36676414  0.33725826    -0.23400
C644        C  0.42461028  0.37175948  0.32269682     0.18800
C645        C  0.41999551  0.39663303  0.31743041     0.16100
C646        C  0.43308612  0.41598946  0.32629381    -0.18400
C647        C  0.40224901  0.40173284  0.30347258    -0.20200
C648        C  0.38923322  0.38236579  0.29473708    -0.12800
C649        C  0.39421007  0.35758969  0.29943383     0.03900
C650        C  0.41200696  0.35236897  0.31339294    -0.24900
H651        H  0.46710210  0.38200301  0.35764232     0.09000
H652        H  0.44526633  0.34783622  0.34158217     0.12600
H653        H  0.42975376  0.43505183  0.32212345     0.12500
H654        H  0.39836274  0.42069325  0.29937261     0.12300
H655        H  0.37562655  0.38671923  0.28397228     0.12800
H656        H  0.41567998  0.33326655  0.31724863     0.14700
C657        C  0.55889291  0.68951694  0.71409692    -0.05300
C658        C  0.53492409  0.68492782  0.72097640    -0.05200
C659        C  0.51969628  0.66776860  0.71169923    -0.23400
C660        C  0.52811086  0.65510884  0.69527374     0.18800
C661        C  0.55211673  0.65979822  0.68816524     0.16100
C662        C  0.56736690  0.67683719  0.69766415    -0.18400
C663        C  0.56046648  0.64743096  0.67162373    -0.20200
C664        C  0.54519582  0.63054536  0.66217052    -0.12800
C665        C  0.52128588  0.62563748  0.66910334     0.03900
C666        C  0.51290283  0.63797568  0.68576540    -0.24900
H667        H  0.52803259  0.69436208  0.73369092     0.09000
H668        H  0.50133490  0.66443355  0.71735449     0.12600
H669        H  0.58569443  0.68048828  0.69205443     0.12500
H670        H  0.57882980  0.65081170  0.66598217     0.12300
H671        H  0.55231040  0.62117529  0.64952030     0.12800
H672        H  0.49445195  0.63459763  0.69119868     0.14700
C673        C  0.36863749  0.49053695  0.67055565    -0.05300
C674        C  0.35492826  0.50321924  0.68467616    -0.05200
C675        C  0.33698890  0.49083474  0.69562692    -0.23400
C676        C  0.33265841  0.46540551  0.69287970     0.18800
C677        C  0.34634568  0.45241192  0.67874282     0.16100
C678        C  0.36402072  0.46511690  0.66749522    -0.18400
C679        C  0.34236342  0.42686067  0.67631971    -0.20200
C680        C  0.32510428  0.41428424  0.68784371    -0.12800
C681        C  0.31124528  0.42704741  0.70185152     0.03900
C682        C  0.31507996  0.45271921  0.70419441    -0.24900
H683        H  0.35797430  0.52283147  0.68719770     0.09000
H684        H  0.32667819  0.50110698  0.70639068     0.12600
H685        H  0.37464978  0.45507023  0.65678867     0.12500
H686        H  0.35269724  0.41656081  0.66558624     0.12300
H687        H  0.32240531  0.39457812  0.68558370     0.12800
H688        H  0.30475451  0.46277919  0.71506889     0.14700
C689        C  0.48320617  0.51629972  0.53911882    -0.05300
C690        C  0.47485910  0.49369105  0.53134779    -0.05200
C691        C  0.48008090  0.48741485  0.51223679    -0.23400
C692        C  0.49366427  0.50367582  0.50047112     0.18800
C693        C  0.50235306  0.52639829  0.50807378     0.16100
C694        C  0.49715936  0.53254654  0.52737987    -0.18400
C695        C  0.51584790  0.54263458  0.49615595    -0.20200
C696        C  0.52032317  0.53655410  0.47681124    -0.12800
C697        C  0.51143094  0.51409437  0.46904413     0.03900
C698        C  0.49839489  0.49762127  0.48115155    -0.24900
H699        H  0.46438289  0.48065764  0.54004909     0.09000
H700        H  0.47334702  0.46987817  0.50662497     0.12600
H701        H  0.50360018  0.55013570  0.53307821     0.12500
H702        H  0.52269286  0.56015241  0.50172403     0.12300
H703        H  0.53039876  0.54969704  0.46792982     0.12800
H704        H  0.49166114  0.48008254  0.47561500     0.14700
loop_ 
_geom_bond_atom_site_label_1 
_geom_bond_atom_site_label_2 
_geom_bond_distance 
_geom_bond_site_symmetry_2 
_ccdc_geom_bond_type 
N1            N2   1.320       .  A
N1            C5   1.341       .  A
N1           Cu9   2.058       .  S
N2            C3   1.345       .  A
N2           Cu8   2.074       .  S
C3            C4   1.388       .  A
C3            H6   1.081       .  S
C4            C5   1.384       .  A
C4          C665   1.480       .  S
C5            H7   1.081       .  S
Cu8          N11   2.074       .  S
Cu9          N19   2.058       .  S
Cu10         N12   2.079       .  S
Cu10         N18   2.078       .  S
N11          N12   1.322       .  A
N11          C15   1.344       .  A
N12          C13   1.347       .  A
C13          C14   1.387       .  A
C13          H16   1.082       .  S
C14          C15   1.385       .  A
C14         C673   1.482       .  S
C15          H17   1.082       .  S
N18          N19   1.321       .  A
N18          C22   1.343       .  A
N19          C20   1.343       .  A
C20          C21   1.385       .  A
C20          H23   1.082       .  S
C21          C22   1.388       .  A
C21         C689   1.481       .  S
C22          H24   1.081       .  S
N25          N26   1.322       .  A
N25          C29   1.345       .  A
N25         Cu33   2.071       .  S
N26          C27   1.343       .  A
N26         Cu32   2.068       .  S
C27          C28   1.383       .  A
C27          H30   1.082       .  S
C28          C29   1.384       .  A
C28         C641   1.474       .  S
C29          H31   1.082       .  S
Cu32         N35   2.068       .  S
Cu33         N43   2.071       .  S
Cu34         N36   2.065       .  S
Cu34         N42   2.065       .  S
N35          N36   1.322       .  A
N35          C39   1.344       .  A
N36          C37   1.343       .  A
C37          C38   1.383       .  A
C37          H40   1.082       .  S
C38          C39   1.383       .  A
C38         C633   1.474       .  S
C39          H41   1.082       .  S
N42          N43   1.320       .  A
N42          C46   1.344       .  A
N43          C44   1.342       .  A
C44          C45   1.388       .  A
C44          H47   1.081       .  S
C45          C46   1.387       .  A
C45         C697   1.484       .  S
C46          H48   1.081       .  S
N49          N50   1.321       .  A
N49          C53   1.344       .  A
N49         Cu57   2.067       .  S
N50          C51   1.345       .  A
N50         Cu56   2.072       .  S
C51          C52   1.385       .  A
C51          H54   1.082       .  S
C52          C53   1.385       .  A
C52         C601   1.478       .  S
C53          H55   1.082       .  S
Cu56         N59   2.072       .  S
Cu57         N67   2.068       .  S
Cu58         N60   2.079       .  S
Cu58         N66   2.079       .  S
N59          N60   1.323       .  A
N59          C63   1.345       .  A
N60          C61   1.346       .  A
C61          C62   1.383       .  A
C61          H64   1.082       .  S
C62          C63   1.381       .  A
C62          C86   1.468       .  S
C63          H65   1.082       .  S
N66          N67   1.322       .  A
N66          C70   1.346       .  A
N67          C68   1.343       .  A
C68          C69   1.384       .  A
C68          H71   1.082       .  S
C69          C70   1.386       .  A
C69         C617   1.478       .  S
C70          H72   1.082       .  S
N73          N74   1.321       .  A
N73          C77   1.344       .  A
N73         Cu81   2.077       .  S
N74          C75   1.345       .  A
N74         Cu80   2.077       .  S
C75          C76   1.388       .  A
C75          H78   1.081       .  S
C76          C77   1.388       .  A
C76         C577   1.487       .  S
C77          H79   1.081       .  S
Cu80         N83   2.077       .  S
Cu81         N91   2.077       .  S
Cu82         N84   2.077       .  S
Cu82         N90   2.078       .  S
N83          N84   1.323       .  A
N83          C87   1.346       .  A
N84          C85   1.346       .  A
C85          C86   1.382       .  A
C85          H88   1.082       .  S
C86          C87   1.382       .  A
C87          H89   1.082       .  S
N90          N91   1.321       .  A
N90          C94   1.345       .  A
N91          C92   1.346       .  A
C92          C93   1.387       .  A
C92          H95   1.082       .  S
C93          C94   1.387       .  A
C93         C681   1.485       .  S
C94          H96   1.082       .  S
N97          N98   1.321       .  A
N97         C101   1.343       .  A
N97        Cu105   2.072       .  S
N98          C99   1.345       .  A
N98        Cu104   2.072       .  S
C99         C100   1.387       .  A
C99         H102   1.081       .  S
C100        C101   1.387       .  A
C100        C553   1.483       .  S
C101        H103   1.081       .  S
Cu104       N107   2.072       .  S
Cu105       N115   2.072       .  S
Cu106       N108   2.085       .  S
Cu106       N114   2.085       .  S
N107        N108   1.324       .  A
N107        C111   1.346       .  A
N108        C109   1.346       .  A
C109        C110   1.383       .  A
C109        H112   1.082       .  S
C110        C111   1.380       .  A
C110        C134   1.468       .  S
C111        H113   1.082       .  S
N114        N115   1.322       .  A
N114        C118   1.348       .  A
N115        C116   1.343       .  A
C116        C117   1.385       .  A
C116        H119   1.082       .  S
C117        C118   1.388       .  A
C117        C561   1.483       .  S
C118        H120   1.082       .  S
N121        N122   1.324       .  A
N121        C125   1.345       .  A
N121       Cu129   2.077       .  S
N122        C123   1.346       .  A
N122       Cu128   2.083       .  S
C123        C124   1.384       .  A
C123        H126   1.082       .  S
C124        C125   1.383       .  A
C124        C649   1.476       .  S
C125        H127   1.082       .  S
Cu128       N131   2.083       .  S
Cu129       N139   2.077       .  S
Cu130       N132   2.067       .  S
Cu130       N138   2.067       .  S
N131        N132   1.322       .  A
N131        C135   1.347       .  A
N132        C133   1.344       .  A
C133        C134   1.380       .  A
C133        H136   1.082       .  S
C134        C135   1.384       .  A
C135        H137   1.082       .  S
N138        N139   1.321       .  A
N138        C142   1.342       .  A
N139        C140   1.347       .  A
C140        C141   1.389       .  A
C140        H143   1.082       .  S
C141        C142   1.385       .  A
C141        C529   1.483       .  S
C142        H144   1.081       .  S
N145        N146   1.321       .  A
N145        C149   1.348       .  A
N145       Cu153   2.081       .  S
N146        C147   1.342       .  A
N146       Cu152   2.064       .  S
C147        C148   1.383       .  A
C147        H150   1.082       .  S
C148        C149   1.388       .  A
C148        C585   1.479       .  S
C149        H151   1.082       .  S
Cu152       N155   2.063   1_455  S
Cu153       N163   2.081       .  S
Cu154       N156   2.073       .  S
Cu154       N162   2.074       .  S
N155        N156   1.320       .  A
N155        C159   1.342       .  A
N156        C157   1.346       .  A
C157        C158   1.387       .  A
C157        H160   1.082       .  S
C158        C159   1.384       .  A
C158        C497   1.478       .  S
C159        H161   1.082       .  S
N162        N163   1.322   1_655  A
N162        C166   1.344       .  A
N163        C164   1.345       .  A
C164        C165   1.389   1_455  A
C164        H167   1.081       .  S
C165        C166   1.387       .  A
C165        C513   1.487       .  S
C166        H168   1.081       .  S
N169        N170   1.320       .  A
N169        C173   1.348   1_655  A
N169       Cu177   2.078       .  S
N170        C171   1.340       .  A
N170       Cu176   2.057       .  S
C171        C172   1.383   1_655  A
C171        H174   1.082       .  S
C172        C173   1.389       .  A
C172        C545   1.479       .  S
C173        H175   1.082       .  S
Cu176       N179   2.057       .  S
Cu177       N187   2.078       .  S
Cu178       N180   2.077       .  S
Cu178       N186   2.079       .  S
N179        N180   1.320       .  A
N179        C183   1.342       .  A
N180        C181   1.346       .  A
C181        C182   1.388       .  A
C181        H184   1.082       .  S
C182        C183   1.382       .  A
C182        C481   1.477       .  S
C183        H185   1.082       .  S
N186        N187   1.322       .  A
N186        C190   1.344       .  A
N187        C188   1.344       .  A
C188        C189   1.388       .  A
C188        H191   1.081   1_655  S
C189        C190   1.389       .  A
C189        C521   1.488       .  S
C190        H192   1.081       .  S
N193        N194   1.323       .  A
N193        C197   1.343       .  A
N193       Cu201   2.064       .  S
N194        C195   1.345       .  A
N194       Cu200   2.076       .  S
C195        C196   1.382       .  A
C195        H198   1.082       .  S
C196        C197   1.379       .  A
C196        C625   1.468       .  S
C197        H199   1.082       .  S
Cu200       N203   2.077       .  S
Cu201       N211   2.064       .  S
Cu202       N204   2.071       .  S
Cu202       N210   2.070       .  S
N203        N204   1.323       .  A
N203        C207   1.346       .  A
N204        C205   1.344       .  A
C205        C206   1.381       .  A
C205        H208   1.082       .  S
C206        C207   1.383       .  A
C206        C230   1.468       .  S
C207        H209   1.082       .  S
N210        N211   1.319       .  A
N210        C214   1.344       .  A
N211        C212   1.343       .  A
C212        C213   1.388       .  A
C212        H215   1.081       .  S
C213        C214   1.389       .  A
C213        C489   1.486       .  S
C214        H216   1.081       .  S
N217        N218   1.320       .  A
N217        C221   1.341       .  A
N217       Cu225   2.062       .  S
N218        C219   1.347       .  A
N218       Cu224   2.076       .  S
C219        C220   1.389       .  A
C219        H222   1.082       .  S
C220        C221   1.384       .  A
C220        C465   1.482       .  S
C221        H223   1.082       .  S
Cu224       N227   2.076       .  S
Cu225       N235   2.062       .  S
Cu226       N228   2.080       .  S
Cu226       N234   2.079       .  S
N227        N228   1.324       .  A
N227        C231   1.346       .  A
N228        C229   1.345       .  A
C229        C230   1.382       .  A
C229        H232   1.082       .  S
C230        C231   1.381       .  A
C231        H233   1.082       .  S
N234        N235   1.322       .  A
N234        C238   1.347       .  A
N235        C236   1.343       .  A
C236        C237   1.379       .  A
C236        H239   1.082       .  S
C237        C238   1.383       .  A
C237        C449   1.468       .  S
C238        H240   1.082       .  S
N241        N242   1.321       .  A
N241        C245   1.345   1_545  A
N241       Cu249   2.071       .  S
N242        C243   1.343       .  A
N242       Cu248   2.072       .  S
C243        C244   1.386   1_545  A
C243        H246   1.081       .  S
C244        C245   1.386       .  A
C244        C473   1.482       .  S
C245        H247   1.082       .  S
Cu248       N251   2.072       .  S
Cu249       N259   2.071       .  S
Cu250       N252   2.070       .  S
Cu250       N258   2.070       .  S
N251        N252   1.321       .  A
N251        C255   1.345       .  A
N252        C253   1.344       .  A
C253        C254   1.386       .  A
C253        H256   1.081       .  S
C254        C255   1.386       .  A
C254        C537   1.482       .  S
C255        H257   1.082       .  S
N258        N259   1.321       .  A
N258        C262   1.344       .  A
N259        C260   1.343       .  A
C260        C261   1.387       .  A
C260        H263   1.081       .  S
C261        C262   1.386       .  A
C261        C441   1.483       .  S
C262        H264   1.081       .  S
N265        N266   1.320       .  A
N265        C269   1.345       .  A
N265       Cu273   2.070       .  S
N266        C267   1.342       .  A
N266       Cu272   2.063       .  S
C267        C268   1.385       .  A
C267        H270   1.081       .  S
C268        C269   1.387       .  A
C268        C425   1.481       .  S
C269        H271   1.082       .  S
Cu272       N275   2.063   1_565  S
Cu273       N283   2.071   1_565  S
Cu274       N276   2.076       .  S
Cu274       N282   2.076       .  S
N275        N276   1.321       .  A
N275        C279   1.341       .  A
N276        C277   1.347       .  A
C277        C278   1.388       .  A
C277        H280   1.082       .  S
C278        C279   1.384       .  A
C278        C609   1.481       .  S
C279        H281   1.081       .  S
N282        N283   1.322       .  A
N282        C286   1.345       .  A
N283        C284   1.342   1_545  A
C284        C285   1.386   1_565  A
C284        H287   1.081       .  S
C285        C286   1.388       .  A
C285        C433   1.484       .  S
C286        H288   1.081       .  S
N289        N290   1.320       .  A
N289        C293   1.344       .  A
N289       Cu297   2.068       .  S
N290        C291   1.343       .  A
N290       Cu296   2.065   1_545  S
C291        C292   1.386       .  A
C291        H294   1.081       .  S
C292        C293   1.388       .  A
C292        C593   1.482       .  S
C293        H295   1.081       .  S
Cu296       N299   2.065   1_455  S
Cu297       N307   2.068       .  S
Cu298       N300   2.080       .  S
Cu298       N306   2.080   1_565  S
N299        N300   1.322       .  A
N299        C303   1.342       .  A
N300        C301   1.347       .  A
C301        C302   1.387       .  A
C301        H304   1.082       .  S
C302        C303   1.383       .  A
C302        C393   1.479       .  S
C303        H305   1.082       .  S
N306        N307   1.322   1_655  A
N306        C310   1.345       .  A
N307        C308   1.343       .  A
C308        C309   1.386   1_455  A
C308        H311   1.081       .  S
C309        C310   1.388       .  A
C309        C401   1.484       .  S
C310        H312   1.081   1_545  S
N313        N314   1.322   1_565  A
N313        C317   1.344       .  A
N313       Cu321   2.069   1_565  S
N314        C315   1.345   1_545  A
N314       Cu320   2.079       .  S
C315        C316   1.386       .  A
C315        H318   1.082       .  S
C316        C317   1.384       .  A
C316        C457   1.479       .  S
C317        H319   1.082       .  S
Cu320       N323   2.080       .  S
Cu321       N331   2.068       .  S
Cu322       N324   2.072       .  S
Cu322       N330   2.072       .  S
N323        N324   1.322       .  A
N323        C327   1.347       .  A
N324        C325   1.344   1_655  A
C325        C326   1.384       .  A
C325        H328   1.082       .  S
C326        C327   1.386   1_455  A
C326        C569   1.480       .  S
C327        H329   1.082       .  S
N330        N331   1.321       .  A
N330        C334   1.344       .  A
N331        C332   1.344       .  A
C332        C333   1.387       .  A
C332        H335   1.081   1_545  S
C333        C334   1.388       .  A
C333        C409   1.484       .  S
C334        H336   1.081       .  S
N337        N338   1.321       .  A
N337        C341   1.345       .  A
N337       Cu345   2.077       .  S
N338        C339   1.343       .  A
N338       Cu344   2.070       .  S
C339        C340   1.387       .  A
C339        H342   1.081       .  S
C340        C341   1.388       .  A
C340        C385   1.485       .  S
C341        H343   1.081       .  S
Cu344       N347   2.070       .  S
Cu345       N355   2.077       .  S
Cu346       N348   2.061       .  S
Cu346       N354   2.062       .  S
N347        N348   1.322       .  A
N347        C351   1.345       .  A
N348        C349   1.343       .  A
C349        C350   1.377       .  A
C349        H352   1.082       .  S
C350        C351   1.380       .  A
C350        C374   1.459       .  S
C351        H353   1.082       .  S
N354        N355   1.321       .  A
N354        C358   1.344       .  A
N355        C356   1.344       .  A
C356        C357   1.387       .  A
C356        H359   1.081       .  S
C357        C358   1.384       .  A
C357        C505   1.480       .  S
C358        H360   1.082       .  S
N361        N362   1.320       .  A
N361        C365   1.342       .  A
N361       Cu369   2.063       .  S
N362        C363   1.345       .  A
N362       Cu368   2.065       .  S
C363        C364   1.385       .  A
C363        H366   1.082       .  S
C364        C365   1.384       .  A
C364        C417   1.477       .  S
C365        H367   1.082       .  S
Cu368       N371   2.065       .  S
Cu369       N379   2.063       .  S
Cu370       N372   2.070       .  S
Cu370       N378   2.070       .  S
N371        N372   1.323       .  A
N371        C375   1.343       .  A
N372        C373   1.345       .  A
C373        C374   1.380       .  A
C373        H376   1.082       .  S
C374        C375   1.377       .  A
C375        H377   1.082       .  S
N378        N379   1.321       .  A
N378        C382   1.344       .  A
N379        C380   1.343       .  A
C380        C381   1.383       .  A
C380        H383   1.082       .  S
C381        C382   1.386       .  A
C381        C657   1.476       .  S
C382        H384   1.082       .  S
C385        C386   1.407       .  A
C385        C390   1.407       .  A
C386        C387   1.397       .  A
C386        H395   1.082       .  S
C387        C388   1.400       .  A
C387        H396   1.083       .  S
C388        C394   1.404       .  A
C388        C389   1.414       .  A
C389        C391   1.402       .  A
C389        C390   1.404       .  A
C390        H397   1.082       .  S
C391        C392   1.397       .  A
C391        H398   1.083       .  S
C392        C393   1.406       .  A
C392        H399   1.083       .  S
C393        C394   1.405       .  A
C394        H400   1.083       .  S
C401        C402   1.407   1_655  A
C401        C406   1.407       .  A
C402        C403   1.396       .  A
C402        H411   1.081       .  S
C403        C404   1.401   1_455  A
C403        H412   1.084       .  S
C404        C410   1.403       .  A
C404        C405   1.412       .  A
C405        C407   1.401       .  A
C405        C406   1.403       .  A
C406        H413   1.083       .  S
C407        C408   1.397       .  A
C407        H414   1.084   1_545  S
C408        C409   1.407       .  A
C408        H415   1.081   1_545  S
C409        C410   1.407       .  A
C410        H416   1.083   1_655  S
C417        C418   1.405       .  A
C417        C422   1.404       .  A
C418        C419   1.399       .  A
C418        H427   1.083       .  S
C419        C420   1.403       .  A
C419        H428   1.084       .  S
C420        C426   1.404       .  A
C420        C421   1.413       .  A
C421        C423   1.400       .  A
C421        C422   1.400       .  A
C422        H429   1.084       .  S
C423        C424   1.394       .  A
C423        H430   1.084       .  S
C424        C425   1.406       .  A
C424        H431   1.082       .  S
C425        C426   1.407       .  A
C426        H432   1.084       .  S
C433        C434   1.407       .  A
C433        C438   1.408       .  A
C434        C435   1.395       .  A
C434        H443   1.081   1_545  S
C435        C436   1.400   1_556  A
C435        H444   1.084   1_556  S
C436        C442   1.402       .  A
C436        C437   1.412   1_554  A
C437        C439   1.402   1_556  A
C437        C438   1.404       .  A
C438        H445   1.083       .  S
C439        C440   1.398       .  A
C439        H446   1.084       .  S
C440        C441   1.407       .  A
C440        H447   1.082       .  S
C441        C442   1.406       .  A
C442        H448   1.083       .  S
C449        C450   1.402       .  A
C449        C454   1.402       .  A
C450        C451   1.396       .  A
C450        H459   1.083       .  S
C451        C452   1.402       .  A
C451        H460   1.084       .  S
C452        C458   1.403       .  A
C452        C453   1.415       .  A
C453        C455   1.402       .  A
C453        C454   1.405       .  A
C454        H461   1.084       .  S
C455        C456   1.398       .  A
C455        H462   1.083       .  S
C456        C457   1.405       .  A
C456        H463   1.083       .  S
C457        C458   1.405       .  A
C458        H464   1.084       .  S
C465        C466   1.406       .  A
C465        C470   1.407       .  A
C466        C467   1.394       .  A
C466        H475   1.082       .  S
C467        C468   1.400       .  A
C467        H476   1.084       .  S
C468        C474   1.401       .  A
C468        C469   1.413       .  A
C469        C471   1.402       .  A
C469        C470   1.405       .  A
C470        H477   1.083       .  S
C471        C472   1.399       .  A
C471        H478   1.083       .  S
C472        C473   1.406       .  A
C472        H479   1.082       .  S
C473        C474   1.405       .  A
C474        H480   1.083   1_565  S
C481        C482   1.405       .  A
C481        C486   1.404       .  A
C482        C483   1.396       .  A
C482        H491   1.083       .  S
C483        C484   1.402       .  A
C483        H492   1.084       .  S
C484        C490   1.403       .  A
C484        C485   1.413       .  A
C485        C487   1.400       .  A
C485        C486   1.404       .  A
C486        H493   1.084       .  S
C487        C488   1.397       .  A
C487        H494   1.084       .  S
C488        C489   1.407       .  A
C488        H495   1.081       .  S
C489        C490   1.408       .  A
C490        H496   1.082       .  S
C497        C498   1.405       .  A
C497        C502   1.406       .  A
C498        C499   1.395       .  A
C498        H507   1.082       .  S
C499        C500   1.400       .  A
C499        H508   1.084       .  S
C500        C506   1.401       .  A
C500        C501   1.414       .  A
C501        C503   1.402       .  A
C501        C502   1.404       .  A
C502        H509   1.084       .  S
C503        C504   1.398       .  A
C503        H510   1.084       .  S
C504        C505   1.406       .  A
C504        H511   1.082       .  S
C505        C506   1.404       .  A
C506        H512   1.083       .  S
C513        C514   1.407       .  A
C513        C518   1.408       .  A
C514        C515   1.397       .  A
C514        H523   1.081       .  S
C515        C516   1.401       .  A
C515        H524   1.084       .  S
C516        C522   1.404   1_556  A
C516        C517   1.412       .  A
C517        C519   1.401   1_655  A
C517        C518   1.404       .  A
C518        H525   1.082   1_655  S
C519        C520   1.397   1_456  A
C519        H526   1.084       .  S
C520        C521   1.408       .  A
C520        H527   1.081   1_655  S
C521        C522   1.408       .  A
C522        H528   1.082       .  S
C529        C530   1.407       .  A
C529        C534   1.407       .  A
C530        C531   1.395       .  A
C530        H539   1.082       .  S
C531        C532   1.400       .  A
C531        H540   1.084       .  S
C532        C538   1.403       .  A
C532        C533   1.413       .  A
C533        C535   1.402       .  A
C533        C534   1.406       .  A
C534        H541   1.084       .  S
C535        C536   1.398       .  A
C535        H542   1.084       .  S
C536        C537   1.406       .  A
C536        H543   1.082       .  S
C537        C538   1.406       .  A
C538        H544   1.084       .  S
C545        C546   1.406       .  A
C545        C550   1.406       .  A
C546        C547   1.393       .  A
C546        H555   1.082   1_455  S
C547        C548   1.399       .  A
C547        H556   1.084       .  S
C548        C554   1.401       .  A
C548        C549   1.414       .  A
C549        C551   1.402       .  A
C549        C550   1.406       .  A
C550        H557   1.084       .  S
C551        C552   1.399       .  A
C551        H558   1.084       .  S
C552        C553   1.407       .  A
C552        H559   1.082       .  S
C553        C554   1.405       .  A
C554        H560   1.083       .  S
C561        C562   1.406       .  A
C561        C566   1.406       .  A
C562        C563   1.397       .  A
C562        H571   1.083       .  S
C563        C564   1.401       .  A
C563        H572   1.083       .  S
C564        C570   1.406       .  A
C564        C565   1.415       .  A
C565        C567   1.402       .  A
C565        C566   1.407       .  A
C566        H573   1.083       .  S
C567        C568   1.398       .  A
C567        H574   1.083       .  S
C568        C569   1.405       .  A
C568        H575   1.083       .  S
C569        C570   1.405       .  A
C570        H576   1.084       .  S
C577        C578   1.408       .  A
C577        C582   1.407       .  A
C578        C579   1.398       .  A
C578        H587   1.081       .  S
C579        C580   1.401       .  A
C579        H588   1.083       .  S
C580        C586   1.406       .  A
C580        C581   1.413       .  A
C581        C583   1.401       .  A
C581        C582   1.404       .  A
C582        H589   1.082       .  S
C583        C584   1.396       .  A
C583        H590   1.083       .  S
C584        C585   1.405       .  A
C584        H591   1.083       .  S
C585        C586   1.405       .  A
C586        H592   1.084       .  S
C593        C594   1.406       .  A
C593        C598   1.407       .  A
C594        C595   1.397       .  A
C594        H603   1.082       .  S
C595        C596   1.401       .  A
C595        H604   1.084       .  S
C596        C602   1.403       .  A
C596        C597   1.413       .  A
C597        C599   1.401       .  A
C597        C598   1.402       .  A
C598        H605   1.083       .  S
C599        C600   1.396       .  A
C599        H606   1.084       .  S
C600        C601   1.405       .  A
C600        H607   1.083       .  S
C601        C602   1.405       .  A
C602        H608   1.084       .  S
C609        C610   1.406       .  A
C609        C614   1.405       .  A
C610        C611   1.399       .  A
C610        H619   1.082       .  S
C611        C612   1.403       .  A
C611        H620   1.084       .  S
C612        C618   1.405       .  A
C612        C613   1.413       .  A
C613        C615   1.400       .  A
C613        C614   1.400       .  A
C614        H621   1.083       .  S
C615        C616   1.395       .  A
C615        H622   1.084       .  S
C616        C617   1.405       .  A
C616        H623   1.083       .  S
C617        C618   1.407       .  A
C618        H624   1.084       .  S
C625        C626   1.402       .  A
C625        C630   1.401       .  A
C626        C627   1.396       .  A
C626        H635   1.083       .  S
C627        C628   1.402       .  A
C627        H636   1.084       .  S
C628        C634   1.402       .  A
C628        C629   1.415       .  A
C629        C631   1.401       .  A
C629        C630   1.402       .  A
C630        H637   1.084       .  S
C631        C632   1.396       .  A
C631        H638   1.084       .  S
C632        C633   1.404       .  A
C632        H639   1.083       .  S
C633        C634   1.404       .  A
C634        H640   1.084       .  S
C641        C642   1.404       .  A
C641        C646   1.403       .  A
C642        C643   1.398       .  A
C642        H651   1.083       .  S
C643        C644   1.403       .  A
C643        H652   1.084       .  S
C644        C650   1.404       .  A
C644        C645   1.414       .  A
C645        C647   1.402       .  A
C645        C646   1.402       .  A
C646        H653   1.084       .  S
C647        C648   1.397       .  A
C647        H654   1.084       .  S
C648        C649   1.404       .  A
C648        H655   1.083       .  S
C649        C650   1.405       .  A
C650        H656   1.084       .  S
C657        C658   1.405       .  A
C657        C662   1.403       .  A
C658        C659   1.397       .  A
C658        H667   1.082       .  S
C659        C660   1.401       .  A
C659        H668   1.084       .  S
C660        C666   1.403       .  A
C660        C661   1.413       .  A
C661        C663   1.399       .  A
C661        C662   1.400       .  A
C662        H669   1.084       .  S
C663        C664   1.394       .  A
C663        H670   1.084       .  S
C664        C665   1.407       .  A
C664        H671   1.081       .  S
C665        C666   1.406       .  A
C666        H672   1.084       .  S
C673        C674   1.405       .  A
C673        C678   1.407       .  A
C674        C675   1.397       .  A
C674        H683   1.083       .  S
C675        C676   1.401       .  A
C675        H684   1.084       .  S
C676        C682   1.405       .  A
C676        C677   1.414       .  A
C677        C679   1.402       .  A
C677        C678   1.407       .  A
C678        H685   1.084       .  S
C679        C680   1.399       .  A
C679        H686   1.084       .  S
C680        C681   1.406       .  A
C680        H687   1.082       .  S
C681        C682   1.407       .  A
C682        H688   1.084       .  S
C689        C690   1.405       .  A
C689        C694   1.409       .  A
C690        C691   1.393       .  A
C690        H699   1.082       .  S
C691        C692   1.400       .  A
C691        H700   1.084       .  S
C692        C698   1.399       .  A
C692        C693   1.412       .  A
C693        C695   1.402       .  A
C693        C694   1.404       .  A
C694        H701   1.083       .  S
C695        C696   1.399       .  A
C695        H702   1.084       .  S
C696        C697   1.408       .  A
C696        H703   1.081       .  S
C697        C698   1.405       .  A
C698        H704   1.082       .  S
