geometry optimzed in LAMMPS
_audit_creation_date              2020-11-30 
_audit_creation_method            'lammps2cif' 
_symmetry_space_group_name_H-M    'P1' 
_symmetry_Int_Tables_number       1 
_symmetry_cell_setting            triclinic 
loop_ 
_symmetry_equiv_pos_as_xyz 
  x,y,z 
_cell_length_a                    34.05313771 
_cell_length_b                    34.06162239914593 
_cell_length_c                    47.92430589006927 
_cell_angle_alpha                 90.00022590653238 
_cell_angle_beta                  89.92372986343649 
_cell_angle_gamma                 121.08712865399688 
loop_ 
_atom_site_label 
_atom_site_type_symbol 
_atom_site_fract_x 
_atom_site_fract_y 
_atom_site_fract_z 
_atom_site_charge 
C1          C  0.32237093  0.84488579  0.25013341    -0.02300
C2          C  0.49387258  0.83125562  0.24562189    -0.02300
C3          C  0.50118750  0.65621280  0.24722051    -0.02300
C4          C  0.31862146  0.47458661  0.24668855    -0.02300
C5          C  0.13982963  0.47554581  0.25465890    -0.02300
C6          C  0.14368017  0.65608497  0.25971373    -0.02300
In7        In  0.99232330  0.32676766  0.88140563     1.36900
C8          C  0.91895124  0.24324222  0.88049612     0.77800
O9          O  0.99299644  0.30417665  0.92453048    -0.60700
O10         O  0.00532336  0.37162007  0.91996389    -0.51600
C11         C  0.07592020  0.34258407  0.86965788     0.70400
O12         O  0.03937721  0.30560040  0.86400272    -0.46400
C13         C  0.95904030  0.35569644  0.84075912     0.75100
O14         O  0.95796714  0.25088778  0.87332668    -0.58300
O15         O  0.95410642  0.36143715  0.86626820    -0.48400
O16         O  0.91858938  0.27818451  0.88867165    -0.54700
C17         C  0.00162125  0.34073171  0.93643048     0.85300
O18         O  0.06973689  0.37312301  0.88014726    -0.56600
O19         O  0.98647651  0.34193660  0.83651778    -0.59900
In20       In  0.66874515  0.99067149  0.88207691     1.36900
C21         C  0.74850310  0.06855933  0.88010856     0.77800
O22         O  0.65621961  0.99807455  0.83673581    -0.60700
O23         O  0.62709211  0.02140418  0.86645463    -0.51600
C24         C  0.65718502  0.90720108  0.87549844     0.70400
O25         O  0.69492406  0.94399301  0.87153952    -0.46400
C26         C  0.65842431  0.98880657  0.93743115     0.75100
O27         O  0.74374046  0.03187324  0.87024509    -0.58300
O28         O  0.62461790  0.97677324  0.92123412    -0.48400
O29         O  0.71291240  0.06411453  0.89117066    -0.54700
C30         C  0.63654050  0.02030057  0.84108051     0.85300
O31         O  0.62421497  0.91315587  0.88089730    -0.56600
O32         O  0.69525245  0.99941669  0.92505777    -0.59900
In33       In  0.67433379  0.66585184  0.11274308     1.36900
C34         C  0.70196486  0.75369117  0.10508832     0.77800
O35         O  0.68987981  0.65186022  0.07002145    -0.60700
O36         O  0.61981230  0.61877971  0.08143995    -0.51600
C37         C  0.74457204  0.65613187  0.12605094     0.70400
O38         O  0.74695517  0.69429220  0.12472830    -0.46400
C39         C  0.61111072  0.64603789  0.15232230     0.75100
O40         O  0.70769150  0.73882260  0.12785184    -0.58300
O41         O  0.60989613  0.66054318  0.12840796    -0.48400
O42         O  0.68506333  0.72411183  0.08609387    -0.54700
C43         C  0.64885172  0.62699363  0.06244384     0.85300
O44         O  0.70464103  0.62186290  0.12234524    -0.56600
O45         O  0.64196406  0.63623413  0.15507974    -0.59900
In46       In  0.29966364  0.30566574  0.10719396     1.36900
C47         C  0.21564147  0.28195555  0.09334205     0.77800
O48         O  0.27588083  0.32114458  0.14723078    -0.60700
O49         O  0.33838747  0.37388619  0.13069646    -0.51600
C50         C  0.32151075  0.24475285  0.12477955     0.70400
O51         O  0.28145628  0.23771306  0.12452890    -0.46400
C52         C  0.32739617  0.32400969  0.05403287     0.75100
O53         O  0.22418612  0.25458410  0.10580575    -0.58300
O54         O  0.34236325  0.35520555  0.07237207    -0.48400
O55         O  0.25021655  0.32028029  0.08741010    -0.54700
C56         C  0.30780353  0.36222319  0.14925084     0.85300
O57         O  0.35196523  0.28458004  0.11697574    -0.56600
O58         O  0.30183291  0.28416813  0.06361568    -0.59900
In59       In  0.99462589  0.31316163  0.11092604     1.36900
C60         C  0.05542864  0.28978350  0.10000480     0.77800
O61         O  0.98528159  0.29276701  0.06650769    -0.60700
O62         O  0.99834090  0.35961505  0.07526626    -0.51600
C63         C  0.90844264  0.24913473  0.12442129     0.70400
O64         O  0.94302966  0.24697820  0.13085944    -0.46400
C65         C  0.03971633  0.36993301  0.15383908     0.75100
O66         O  0.01615465  0.26152013  0.10949355    -0.58300
O67         O  0.02402542  0.38213939  0.13388426    -0.48400
O68         O  0.06336035  0.32990610  0.09630081    -0.54700
C69         C  0.99338983  0.33061822  0.05686496     0.85300
O70         O  0.91794512  0.28653407  0.11304324    -0.56600
O71         O  0.02902496  0.32876539  0.15231716    -0.59900
In72       In  0.68115129  0.98540248  0.11241652     1.36900
C73         C  0.70222742  0.92137938  0.10554142     0.77800
O74         O  0.66133690  0.95675919  0.15579034    -0.60700
O75         O  0.60856887  0.95203433  0.13038779    -0.51600
C76         C  0.74242915  0.07265922  0.12586214     0.70400
O77         O  0.74835731  0.03969173  0.13038043    -0.46400
C78         C  0.66951565  0.99417356  0.05816830     0.75100
O79         O  0.72954292  0.95944110  0.11675470    -0.58300
O80         O  0.63859586  0.98604708  0.07590609    -0.48400
O81         O  0.66501930  0.91695014  0.09730009    -0.54700
C82         C  0.61904209  0.94087789  0.15309332     0.85300
O83         O  0.70345202  0.06080238  0.11602887    -0.56600
O84         O  0.70544892  0.99822037  0.06849469    -0.59900
In85       In  0.29329693  0.99158260  0.11478460     1.36900
C86         C  0.20858000  0.92659824  0.10356221     0.77800
O87         O  0.29592727  0.02003146  0.07281811    -0.60700
O88         O  0.33403075  0.98717937  0.07901684    -0.51600
C89         C  0.31847262  0.07621790  0.13074967     0.70400
O90         O  0.27750115  0.04342077  0.13068524    -0.46400
C91         C  0.30598490  0.94445030  0.15473283     0.75100
O92         O  0.21764691  0.96071397  0.11854524    -0.58300
O93         O  0.33449437  0.96394450  0.13512011    -0.48400
O94         O  0.24289734  0.92742414  0.09305206    -0.54700
C95         C  0.32129810  0.00712736  0.06223582     0.85300
O96         O  0.34761432  0.06493239  0.12513685    -0.56600
O97         O  0.27418462  0.95291667  0.15488021    -0.59900
In98       In  0.99441844  0.66067697  0.11697567     1.36900
C99         C  0.04972117  0.74961170  0.10974159     0.77800
O100        O  0.04942781  0.64866043  0.13413858    -0.60700
O101        O  0.99530696  0.63680965  0.16073548    -0.51600
C102        C  0.91507932  0.65689165  0.12586955     0.70400
O103        O  0.95265119  0.69354874  0.12190253    -0.46400
C104        C  0.98731538  0.62087524  0.06789206     0.75100
O105        O  0.03741022  0.73140035  0.13351874    -0.58300
O106        O  0.95378845  0.60612128  0.08451273    -0.48400
O107        O  0.03218245  0.72221378  0.08959009    -0.54700
C108        C  0.03376577  0.64011956  0.15854995     0.85300
O109        O  0.91796754  0.62130137  0.12559096    -0.56600
O110        O  0.02459476  0.65203883  0.07791621    -0.59900
In111      In  0.66719476  0.66405260  0.89244594     1.36900
C112        C  0.75639880  0.69595199  0.89458190     0.77800
O113        O  0.61967393  0.64417736  0.93004667    -0.60700
O114        O  0.67047933  0.62631939  0.92978383    -0.51600
C115        C  0.65848482  0.73729083  0.88415755     0.70400
O116        O  0.69627465  0.73899489  0.88507712    -0.46400
C117        C  0.63798121  0.60441041  0.84955571     0.75100
O118        O  0.73254644  0.67677723  0.87325220    -0.58300
O119        O  0.63595842  0.59173725  0.87448086    -0.48400
O120        O  0.73515276  0.70180106  0.91411893    -0.54700
C121        C  0.63976901  0.62771884  0.94356749     0.85300
O122        O  0.62411530  0.69752908  0.88810079    -0.56600
O123        O  0.64949982  0.64582589  0.84735980    -0.59900
In124      In  0.31260891  0.32552544  0.87851028     1.36900
C125        C  0.29962762  0.24255930  0.87526811     0.77800
O126        O  0.38590051  0.36535330  0.86206255    -0.60700
O127        O  0.33130562  0.33402002  0.83317398    -0.51600
C128        C  0.24581632  0.34277139  0.86900990     0.70400
O129        O  0.24205960  0.30460989  0.86426565    -0.46400
C130        C  0.32548279  0.33503998  0.93369443     0.75100
O131        O  0.26689212  0.24952768  0.87214873    -0.58300
O132        O  0.34849541  0.36850063  0.91731784    -0.48400
O133        O  0.33779817  0.27783811  0.88057206    -0.54700
C134        C  0.37393469  0.35380978  0.83703093     0.85300
O135        O  0.28518040  0.37352859  0.87727437    -0.56600
O136        O  0.29504136  0.29922469  0.92184241    -0.59900
In137      In  0.30068880  0.99940320  0.88929346     1.36900
C138        C  0.29523149  0.07269260  0.88213769     0.77800
O139        O  0.29785988  0.01933918  0.93280885    -0.60700
O140        O  0.33801814  0.98912637  0.92529516    -0.51600
C141        C  0.22671139  0.91550837  0.88846000     0.70400
O142        O  0.22591291  0.95188695  0.89059540    -0.46400
C143        C  0.35296016  0.02584755  0.84394458     0.75100
O144        O  0.26096978  0.03298511  0.87812099    -0.58300
O145        O  0.36884428  0.02533177  0.86771077    -0.48400
O146        O  0.33053244  0.07391950  0.89132333    -0.54700
C147        C  0.32308495  0.00604659  0.94289774     0.85300
O148        O  0.26659050  0.92192389  0.88569607    -0.56600
O149        O  0.30987136  0.00535205  0.84309611    -0.59900
In150      In  0.97748823  0.66003194  0.90022639     1.36900
C151        C  0.92115084  0.69213002  0.89895908     0.77800
O152        O  0.97632143  0.64401565  0.85474072    -0.60700
O153        O  0.93019422  0.58955903  0.88086070    -0.51600
C154        C  0.05979355  0.73669767  0.89756752     0.70400
O155        O  0.02370523  0.73506263  0.90537233    -0.46400
C156        C  0.97407651  0.62161162  0.94945880     0.75100
O157        O  0.93830466  0.68591223  0.87739207    -0.58300
O158        O  0.94127055  0.62403611  0.93939647    -0.48400
O159        O  0.93449241  0.68358382  0.92143844    -0.54700
C160        C  0.94234522  0.60382935  0.85623718     0.85300
O161        O  0.05438383  0.69799034  0.89174291    -0.56600
O162        O  0.00777296  0.63522505  0.93300425    -0.59900
C163        C  0.83006223  0.33459357  0.75026638    -0.02300
C164        C  0.83081607  0.51355588  0.75563176    -0.02300
C165        C  0.65392584  0.14898942  0.75176651    -0.02300
C166        C  0.65080263  0.51143685  0.74813959    -0.02300
C167        C  0.47256162  0.14293979  0.75130894    -0.02300
C168        C  0.47615879  0.32461852  0.74765492    -0.02300
In169      In  0.67653649  0.68322419  0.60883550     1.36900
C170        C  0.76596982  0.72007421  0.60415207     0.77800
O171        O  0.69227242  0.66805633  0.65195287    -0.60700
O172        O  0.63792718  0.61331075  0.63051259    -0.51600
C173        C  0.66132676  0.75376097  0.60925067     0.70400
O174        O  0.69025074  0.75173727  0.59390516    -0.46400
C175        C  0.63836658  0.64051809  0.56091307     0.75100
O176        O  0.74847046  0.73276815  0.62261965    -0.58300
O177        O  0.61780206  0.65228928  0.57790292    -0.48400
O178        O  0.73768009  0.69079560  0.58725535    -0.54700
C179        C  0.66396406  0.62567839  0.65149825     0.85300
O180        O  0.63933736  0.71900144  0.62484830    -0.56600
O181        O  0.67627858  0.64735993  0.56963324    -0.59900
In182      In  0.66039541  0.00377729  0.60619969     1.36900
C183        C  0.74856576  0.06091142  0.59829582     0.77800
O184        O  0.59900187  0.97122241  0.57697910    -0.60700
O185        O  0.65768214  0.03500629  0.56604470    -0.51600
C186        C  0.65124878  0.92017697  0.60597335     0.70400
O187        O  0.68000876  0.95391479  0.59174493    -0.46400
C188        C  0.65288910  0.04862107  0.65078374     0.75100
O189        O  0.73364238  0.02823291  0.61546207    -0.58300
O190        O  0.62893316  0.04052204  0.62909520    -0.48400
O191        O  0.71811671  0.06298186  0.58467682    -0.54700
C192        C  0.61906921  0.00232341  0.55869379     0.85300
O193        O  0.62549264  0.92864725  0.62070234    -0.56600
O194        O  0.67510181  0.02848509  0.65080478    -0.59900
In195      In  0.98489815  0.30867949  0.61801088     1.36900
C196        C  0.92115123  0.22362085  0.60613190     0.77800
O197        O  0.94657841  0.29144471  0.65814229    -0.60700
O198        O  0.95505366  0.34962581  0.63714385    -0.51600
C199        C  0.06840768  0.32912643  0.63513379     0.70400
O200        O  0.03225913  0.29103620  0.63870376    -0.46400
C201        C  0.99604917  0.33315435  0.56479183     0.75100
O202        O  0.95670616  0.23298388  0.61957869    -0.58300
O203        O  0.98332897  0.35172766  0.58264554    -0.48400
O204        O  0.91922613  0.25775513  0.59814001    -0.54700
C205        C  0.93609632  0.32176912  0.65710587     0.85300
O206        O  0.06173109  0.35924215  0.62456623    -0.56600
O207        O  0.00595415  0.30506372  0.57473256    -0.59900
In208      In  0.28854812  0.29092965  0.61658374     1.36900
C209        C  0.26265058  0.20413627  0.60751920     0.77800
O210        O  0.26258639  0.28427741  0.57299403    -0.60700
O211        O  0.33242121  0.33436768  0.58042039    -0.51600
C212        C  0.23132399  0.31910582  0.63227897     0.70400
O213        O  0.22295667  0.27876542  0.63523665    -0.46400
C214        C  0.35099655  0.30527988  0.65629515     0.75100
O215        O  0.23872198  0.21507739  0.62188486    -0.58300
O216        O  0.36235841  0.32630516  0.63323515    -0.48400
O217        O  0.29855968  0.23743034  0.59742191    -0.54700
C218        C  0.30055999  0.31424142  0.56266419     0.85300
O219        O  0.27094740  0.34660376  0.62278203    -0.56600
O220        O  0.30830608  0.28147868  0.65963885    -0.59900
In221      In  0.30749862  0.99174358  0.61012520     1.36900
C222        C  0.27030622  0.04261374  0.60281235     0.77800
O223        O  0.34691665  0.99506276  0.64912964    -0.60700
O224        O  0.36267640  0.05674195  0.62921940    -0.51600
C225        C  0.24075580  0.90944378  0.62592759     0.70400
O226        O  0.23710577  0.94440303  0.62554185    -0.46400
C227        C  0.33584301  0.98557386  0.55933881     0.75100
O228        O  0.27005149  0.02496796  0.62594995    -0.58300
O229        O  0.36320986  0.01280246  0.57748941    -0.48400
O230        O  0.28691366  0.03147945  0.58304017    -0.54700
C231        C  0.36819190  0.03833057  0.65034613     0.85300
O232        O  0.28014059  0.91692096  0.61955938    -0.56600
O233        O  0.29578497  0.95901347  0.56816957    -0.59900
In234      In  0.98038880  0.68149524  0.61297218     1.36900
C235        C  0.93168144  0.72106412  0.60523551     0.77800
O236        O  0.01314965  0.69300327  0.57110065    -0.60700
O237        O  0.95778177  0.62609081  0.57915857    -0.51600
C238        C  0.06510542  0.74528188  0.62734399     0.70400
O239        O  0.03223009  0.75229882  0.62602181    -0.46400
C240        C  0.93471845  0.62393502  0.65552720     0.75100
O241        O  0.95447736  0.72693539  0.62716807    -0.58300
O242        O  0.91566835  0.63031726  0.63507517    -0.48400
O243        O  0.93661159  0.69760151  0.58686606    -0.54700
C244        C  0.98653503  0.65356846  0.56153627     0.85300
O245        O  0.05440892  0.70451814  0.62204712    -0.56600
O246        O  0.97758328  0.64277427  0.65263865    -0.59900
In247      In  0.99053311  0.68933525  0.39102953     1.36900
C248        C  0.04922765  0.77856276  0.39194444     0.77800
O249        O  0.95481205  0.63567225  0.42519719    -0.60700
O250        O  0.02275175  0.69063181  0.43164201    -0.51600
C251        C  0.90812536  0.67998510  0.38659046     0.70400
O252        O  0.94209129  0.71341705  0.39810731    -0.46400
C253        C  0.03209836  0.67033906  0.34974513     0.75100
O254        O  0.02016269  0.75949651  0.37276065    -0.58300
O255        O  0.02472187  0.65168539  0.37344625    -0.48400
O256        O  0.04646111  0.75227350  0.41133159    -0.54700
C257        C  0.98803985  0.65610667  0.44200819     0.85300
O258        O  0.91570354  0.64952914  0.37760479    -0.56600
O259        O  0.01307754  0.69320284  0.34650765    -0.59900
In260      In  0.65488009  0.67051003  0.39129866     1.36900
C261        C  0.65521564  0.74750309  0.39628987     0.77800
O262        O  0.64922762  0.67710118  0.34507289    -0.60700
O263        O  0.58942397  0.62819789  0.36631533    -0.51600
C264        C  0.73248476  0.66981670  0.38561212     0.70400
O265        O  0.73102471  0.70600357  0.38689420    -0.46400
C266        C  0.62960547  0.63921907  0.44333274     0.75100
O267        O  0.69184194  0.74691742  0.39335024    -0.58300
O268        O  0.62084925  0.61196923  0.42313745    -0.48400
O269        O  0.61915212  0.70849993  0.39732783    -0.54700
C270        C  0.60654343  0.64984650  0.34384583     0.85300
O271        O  0.69353960  0.63349341  0.38637606    -0.56600
O272        O  0.65080653  0.68083393  0.43668173    -0.59900
In273      In  0.31319778  0.99565555  0.38883896     1.36900
C274        C  0.22286390  0.94179035  0.38710222     0.77800
O275        O  0.34053264  0.99542363  0.34628608    -0.60700
O276        O  0.33045054  0.94274735  0.37372129    -0.51600
C277        C  0.32813955  0.08039921  0.38072313     0.70400
O278        O  0.28962334  0.04429837  0.37811333    -0.46400
C279        C  0.33880062  0.98937885  0.44040399     0.75100
O280        O  0.24860224  0.94748227  0.36668348    -0.58300
O281        O  0.30181245  0.95958963  0.42934813    -0.48400
O282        O  0.24341193  0.96596160  0.40816968    -0.54700
C283        C  0.33918706  0.95795259  0.34915403     0.85300
O284        O  0.36001920  0.07339333  0.38701530    -0.56600
O285        O  0.36477535  0.02214210  0.42437941    -0.59900
In286      In  0.30839794  0.31575132  0.38603339     1.36900
C287        C  0.22799792  0.30929965  0.38298027     0.77800
O288        O  0.27906726  0.29295201  0.42829886    -0.60700
O289        O  0.34745886  0.34942487  0.42643007    -0.51600
C290        C  0.32577990  0.24883773  0.37785507     0.70400
O291        O  0.28752086  0.24515034  0.37332679    -0.46400
C292        C  0.33716229  0.37237989  0.34185250     0.83500
O293        O  0.23252531  0.27539225  0.37790105    -0.58300
O294        O  0.34794713  0.38718744  0.36660298    -0.48400
O295        O  0.26455913  0.34548908  0.38968769    -0.54700
C296        C  0.31318025  0.32307484  0.44165014     0.85300
O297        O  0.35668988  0.28818785  0.38618031    -0.56600
O298        O  0.31814576  0.32946953  0.33996108    -0.59900
In299      In  0.98366342  0.31426256  0.39074474     1.36900
C300        C  0.05940898  0.31089665  0.38684161     0.77800
O301        O  0.98824262  0.32920340  0.34513739    -0.60700
O302        O  0.01728239  0.38600602  0.37256141    -0.51600
C303        C  0.89853186  0.24210862  0.38463331     0.70400
O304        O  0.93454951  0.24031527  0.38273962    -0.46400
C305        C  0.98591816  0.32865395  0.44514595     0.75100
O306        O  0.02041276  0.27668235  0.38110831    -0.58300
O307        O  0.97463962  0.34983017  0.42830047    -0.48400
O308        O  0.05868726  0.34544506  0.39538897    -0.54700
C309        C  0.01350258  0.37204512  0.34773734     0.85300
O310        O  0.90604233  0.28222044  0.38848396    -0.56600
O311        O  0.99273871  0.29921403  0.43406581    -0.59900
In312      In  0.64444719  0.98751576  0.39092551     1.36900
C313        C  0.65379275  0.91591696  0.39633487     0.77800
O314        O  0.63025176  0.96637452  0.43554783    -0.60700
O315        O  0.60879974  0.01116157  0.42144015    -0.51600
C316        C  0.72206248  0.06988828  0.38649477     0.70400
O317        O  0.71999022  0.03413468  0.39543818    -0.46400
C318        C  0.59646538  0.95263192  0.34335028     0.75100
O319        O  0.68785811  0.95540632  0.39137145    -0.58300
O320        O  0.57897294  0.95909086  0.36484752    -0.48400
O321        O  0.61609652  0.91425867  0.39902922    -0.54700
C322        C  0.61162151  0.98878029  0.44162479     0.85300
O323        O  0.68343492  0.06408063  0.37989999    -0.56600
O324        O  0.63909661  0.96963303  0.34538298    -0.59900
C325        C  0.85203049  0.19949174  0.38335500     0.00000
C326        C  0.85021911  0.15743634  0.38158317    -0.11800
C327        C  0.80864298  0.11559833  0.38203961     0.02300
C328        C  0.76660636  0.11442675  0.38416541    -0.00100
C329        C  0.76792154  0.15642714  0.38505764    -0.11800
C330        C  0.81004432  0.19871241  0.38489887     0.02200
H331        H  0.88175415  0.15693678  0.38018699     0.15100
H332        H  0.73606836  0.15625864  0.38664101     0.15100
C333        C  0.80896689  0.24042530  0.38674365     0.36800
C334        C  0.81072389  0.07446394  0.37976057     0.36700
N335        N  0.80793971  0.27379592  0.38827159    -0.43600
N336        N  0.81296292  0.04182843  0.37784138    -0.43600
C337        C  0.18399267  0.30801232  0.38180021     0.00000
C338        C  0.18570641  0.35000505  0.38333864    -0.11800
C339        C  0.14582538  0.35186491  0.38413088     0.02300
C340        C  0.10256904  0.31075669  0.38406647    -0.00100
C341        C  0.10068253  0.26874009  0.38143915    -0.11800
C342        C  0.14087459  0.26702455  0.37997940     0.02200
H343        H  0.21855361  0.38190952  0.38382162     0.15100
H344        H  0.06770366  0.23703320  0.38078079     0.15100
C345        C  0.13654071  0.22284035  0.37664429     0.36800
C346        C  0.15094892  0.39672322  0.38404969     0.36700
N347        N  0.13279671  0.18734234  0.37366868    -0.43600
N348        N  0.15570056  0.43290835  0.38364608    -0.43600
C349        C  0.33391309  0.12651636  0.37703535     0.00000
C350        C  0.30256518  0.13008257  0.35983678    -0.11800
C351        C  0.30196787  0.17078212  0.35817770     0.02300
C352        C  0.33220795  0.20895961  0.37473225    -0.00100
C353        C  0.36578130  0.20661255  0.39049709    -0.11800
C354        C  0.36711109  0.16595756  0.39157871     0.02200
H355        H  0.27785932  0.10060354  0.34781124     0.15100
H356        H  0.38968582  0.23580988  0.40299647     0.15100
C357        C  0.40115372  0.16492957  0.40895770     0.36800
C358        C  0.27007924  0.17244368  0.33905972     0.36700
N359        N  0.42852637  0.16405736  0.42279222    -0.43600
N360        N  0.24487798  0.17418347  0.32365128    -0.43600
C361        C  0.65614037  0.87397528  0.39816514     0.00000
C362        C  0.61441190  0.83197407  0.39837029    -0.11800
C363        C  0.61313076  0.79052025  0.39842898     0.02300
C364        C  0.65457621  0.79039876  0.39807256    -0.00100
C365        C  0.69645755  0.83238753  0.39872384    -0.11800
C366        C  0.69763313  0.87405151  0.39896137     0.02200
H367        H  0.58219345  0.83126705  0.39801116     0.15100
H368        H  0.72850425  0.83277067  0.39896934     0.15100
C369        C  0.74179258  0.91577608  0.40064292     0.36800
C370        C  0.56846775  0.74909892  0.39841131     0.36700
N371        N  0.77756896  0.94872254  0.40229174    -0.43600
N372        N  0.53243737  0.71625701  0.39847364    -0.43600
C373        C  0.08664510  0.82659479  0.39046107     0.00000
C374        C  0.10697806  0.84385535  0.36442399    -0.11800
C375        C  0.15019684  0.88355008  0.36250353     0.02300
C376        C  0.17340273  0.90691361  0.38711497    -0.00100
C377        C  0.15037735  0.89250350  0.41285737    -0.11800
C378        C  0.10720952  0.85252445  0.41467388     0.02200
H379        H  0.09073339  0.82442948  0.34568090     0.15100
H380        H  0.16717013  0.91080229  0.43183577     0.15100
C381        C  0.08490878  0.83823767  0.44153675     0.36800
C382        C  0.17056335  0.89791276  0.33513403     0.36700
N383        N  0.06650899  0.82665920  0.46290031    -0.43600
N384        N  0.18689238  0.90931717  0.31320771    -0.43600
C385        C  0.77675509  0.67088922  0.38405377     0.00000
C386        C  0.81768741  0.71378752  0.38456515    -0.11800
C387        C  0.86050487  0.71739855  0.38471514     0.02300
C388        C  0.86333771  0.67738440  0.38429600    -0.00100
C389        C  0.82262127  0.63447786  0.38287423    -0.11800
C390        C  0.77958766  0.63086467  0.38295496     0.02200
H391        H  0.81641097  0.74494297  0.38516246     0.15100
H392        H  0.82434106  0.60356299  0.38252859     0.15100
C393        C  0.73912739  0.58561372  0.38244660     0.36800
C394        C  0.90094241  0.76284619  0.38485023     0.36700
N395        N  0.70661587  0.54935720  0.38210522    -0.43600
N396        N  0.93338124  0.79917743  0.38495441    -0.43600
C397        C  0.98766726  0.64316013  0.53144410     0.00000
C398        C  0.94644881  0.61625111  0.51671028    -0.11800
C399        C  0.94568180  0.61646914  0.48725045     0.02300
C400        C  0.98680391  0.64414680  0.47212906    -0.00100
C401        C  0.02826199  0.66696664  0.48700600    -0.11800
C402        C  0.02902263  0.66671288  0.51618173     0.02200
H403        H  0.91441827  0.59771457  0.52814529     0.15100
H404        H  0.06035448  0.68731238  0.47585299     0.15100
C405        C  0.07284219  0.69256905  0.53000396     0.36800
C406        C  0.90204290  0.59037223  0.47328552     0.36700
N407        N  0.10786734  0.71329596  0.54116256    -0.43600
N408        N  0.86713495  0.56933063  0.46202152    -0.43600
C409        C  0.34815736  0.98728278  0.47040828     0.00000
C410        C  0.37349212  0.02835352  0.48539643    -0.11800
C411        C  0.37307812  0.02842551  0.51470072     0.02300
C412        C  0.34735928  0.98667311  0.52943619    -0.00100
C413        C  0.32523889  0.94544069  0.51441945    -0.11800
C414        C  0.32576796  0.94535341  0.48522044     0.02200
H415        H  0.39060839  0.06076163  0.47428287     0.15100
H416        H  0.30569631  0.91320345  0.52554418     0.15100
C417        C  0.30191533  0.90174036  0.47098381     0.36800
C418        C  0.39499312  0.07206992  0.52889630     0.36700
N419        N  0.28296373  0.86688606  0.45948201    -0.43600
N420        N  0.41230351  0.10709215  0.54021549    -0.43600
C421        C  0.20038601  0.86355416  0.63173321     0.00000
C422        C  0.16509953  0.86127841  0.64813163    -0.11800
C423        C  0.12151037  0.82177060  0.64865482     0.02300
C424        C  0.11264530  0.78306781  0.63281148    -0.00100
C425        C  0.14911302  0.78369985  0.61860962    -0.11800
C426        C  0.19271076  0.82372837  0.61767636     0.02200
H427        H  0.17081559  0.89148650  0.65931942     0.15100
H428        H  0.14263294  0.75423184  0.60628818     0.15100
C429        C  0.22711358  0.82450356  0.59964794     0.36800
C430        C  0.08605518  0.82273268  0.66468263     0.36700
N431        N  0.25465474  0.82543807  0.58501896    -0.43600
N432        N  0.05769047  0.82371700  0.67743357    -0.43600
C433        C  0.30647666  0.32282886  0.53197651     0.00000
C434        C  0.26713226  0.30900208  0.51578820    -0.11800
C435        C  0.26922599  0.31091601  0.48660700     0.02300
C436        C  0.31145031  0.32626443  0.47264604    -0.00100
C437        C  0.35131648  0.34228754  0.48876242    -0.11800
C438        C  0.34918805  0.34073589  0.51816538     0.02200
H439        H  0.23422941  0.29606179  0.52598785     0.15100
H440        H  0.38394090  0.35446192  0.47839955     0.15100
C441        C  0.39098452  0.35563889  0.53351841     0.36800
C442        C  0.22733432  0.29752549  0.47158850     0.36700
N443        N  0.42444411  0.36761791  0.54591330    -0.43600
N444        N  0.19385403  0.28699393  0.45956247    -0.43600
C445        C  0.25625690  0.07677126  0.60008098     0.00000
C446        C  0.23546607  0.08424290  0.62316174    -0.11800
C447        C  0.23288237  0.12378348  0.62501625     0.02300
C448        C  0.25184941  0.15676349  0.60353080    -0.00100
C449        C  0.26782714  0.14681076  0.57913971    -0.11800
C450        C  0.26977812  0.10699262  0.57705774     0.02200
H451        H  0.22389632  0.06066730  0.64067455     0.15100
H452        H  0.28130075  0.17156146  0.56222647     0.15100
C453        C  0.28891762  0.10017591  0.55188388     0.36800
C454        C  0.21442283  0.13123583  0.65024047     0.36700
N455        N  0.30415483  0.09480376  0.53164935    -0.43600
N456        N  0.19933748  0.13664789  0.67052190    -0.43600
C457        C  0.99726299  0.34081104  0.53434961     0.00000
C458        C  0.02935080  0.33621958  0.51861222    -0.11800
C459        C  0.02743799  0.33480594  0.48954053     0.02300
C460        C  0.99240662  0.33745218  0.47548561    -0.00100
C461        C  0.96180084  0.34479938  0.49101828    -0.11800
C462        C  0.96381475  0.34627396  0.52035098     0.02200
H463        H  0.05543786  0.33248568  0.52913739     0.15100
H464        H  0.93483896  0.34685486  0.48036803     0.15100
C465        C  0.92901708  0.34963655  0.53552744     0.36800
C466        C  0.06202129  0.33059212  0.47460910     0.36700
N467        N  0.90105795  0.35216301  0.54773939    -0.43600
N468        N  0.08967782  0.32732365  0.46255847    -0.43600
C469        C  0.11446641  0.33530993  0.64047429     0.00000
C470        C  0.15259848  0.36756945  0.62480831    -0.11800
C471        C  0.19307669  0.36585678  0.62363574     0.02300
C472        C  0.19557474  0.33094960  0.63808242    -0.00100
C473        C  0.15923982  0.30192085  0.65589338    -0.11800
C474        C  0.11933629  0.30408568  0.65745411     0.02200
H475        H  0.14976399  0.39218674  0.61195000     0.15100
H476        H  0.16114889  0.27590682  0.66784681     0.15100
C477        C  0.08336195  0.27264772  0.67608788     0.36800
C478        C  0.23003724  0.39825981  0.60595959     0.36700
N479        N  0.05467138  0.24747039  0.69108533    -0.43600
N480        N  0.25974770  0.42444536  0.59189909    -0.43600
C481        C  0.60254078  0.99877379  0.52960376     0.00000
C482        C  0.57974478  0.95535902  0.51705183    -0.11800
C483        C  0.57821488  0.95095247  0.48791786     0.02300
C484        C  0.59820448  0.99049806  0.47080144    -0.00100
C485        C  0.61519963  0.03345665  0.48330298    -0.11800
C486        C  0.61815232  0.03800540  0.51246114     0.02200
H487        H  0.56732636  0.92495146  0.52988500     0.15100
H488        H  0.63046272  0.06397076  0.47035235     0.15100
C489        C  0.64031638  0.08363110  0.52407369     0.36800
C490        C  0.55875310  0.90557329  0.47620142     0.36700
N491        N  0.65829370  0.12033338  0.53319884    -0.43600
N492        N  0.54316547  0.86904955  0.46707204    -0.43600
C493        C  0.88315734  0.17682839  0.60117388     0.00000
C494        C  0.85713742  0.16846326  0.57688273    -0.11800
C495        C  0.81438097  0.12853829  0.57417087     0.02300
C496        C  0.79734761  0.09631481  0.59617349    -0.00100
C497        C  0.82562436  0.10245607  0.61905992    -0.11800
C498        C  0.86812651  0.14270875  0.62194221     0.02200
H499        H  0.86908873  0.19442330  0.56068129     0.15100
H500        H  0.81284026  0.07778812  0.63601405     0.15100
C501        C  0.89246545  0.15034713  0.64793937     0.36800
C502        C  0.78796884  0.12281599  0.54929792     0.36700
N503        N  0.91151174  0.15646672  0.66894194    -0.43600
N504        N  0.76671430  0.11826535  0.52943677    -0.43600
C505        C  0.62285099  0.62575517  0.53176773     0.00000
C506        C  0.59937436  0.64416638  0.51830299    -0.11800
C507        C  0.59739354  0.64487914  0.48913364     0.02300
C508        C  0.61779232  0.62555783  0.47287315    -0.00100
C509        C  0.63593679  0.60182375  0.48630230    -0.11800
C510        C  0.63887407  0.60200724  0.51558594     0.02200
H511        H  0.58644580  0.66205360  0.53038456     0.15100
H512        H  0.65142578  0.58664076  0.47395829     0.15100
C513        C  0.66042003  0.57951591  0.52841775     0.36800
C514        C  0.57719926  0.66868001  0.47626675     0.36700
N515        N  0.67757620  0.56138486  0.53871481    -0.43600
N516        N  0.56124244  0.68791811  0.46591551    -0.43600
C517        C  0.89784424  0.73559053  0.60255307     0.00000
C518        C  0.88348477  0.74756731  0.62691502    -0.11800
C519        C  0.84217393  0.74707824  0.62750099     0.02300
C520        C  0.81492531  0.73484305  0.60318573    -0.00100
C521        C  0.83231211  0.72882856  0.57806797    -0.11800
C522        C  0.87348927  0.72929268  0.57747415     0.02200
H523        H  0.90232692  0.75329363  0.64620501     0.15100
H524        H  0.81217983  0.72074620  0.55911406     0.15100
C525        C  0.88810635  0.72031792  0.55115197     0.36800
C526        C  0.82666720  0.75448688  0.65396653     0.36700
N527        N  0.89962648  0.71301216  0.53003615    -0.43600
N528        N  0.81438918  0.76036085  0.67524168    -0.43600
C529        C  0.65480023  0.79412032  0.60835760     0.00000
C530        C  0.67284141  0.82419487  0.58545935    -0.11800
C531        C  0.67036865  0.86401711  0.58381021     0.02300
C532        C  0.64973384  0.87534117  0.60561440    -0.00100
C533        C  0.63031002  0.84458675  0.62812654    -0.11800
C534        C  0.63274358  0.80447664  0.62969353     0.02200
H535        H  0.68926730  0.81669297  0.56860834     0.15100
H536        H  0.61447880  0.85262276  0.64506221     0.15100
C537        C  0.61414922  0.77577551  0.65405714     0.36800
C538        C  0.68893770  0.89222321  0.55914570     0.36700
N539        N  0.59936778  0.75281014  0.67364876    -0.43600
N540        N  0.70370919  0.91476923  0.53937701    -0.43600
C541        C  0.44800494  0.31537572  0.71971869     0.00000
C542        C  0.40144373  0.27975108  0.72035140    -0.11800
C543        C  0.36989921  0.27576325  0.70013179     0.02300
C544        C  0.38432184  0.30675496  0.67741108    -0.00100
C545        C  0.43168128  0.33740083  0.67411252    -0.11800
C546        C  0.46359088  0.34079895  0.69423772     0.02200
H547        H  0.38856982  0.25711660  0.73824551     0.15100
H548        H  0.44401474  0.35860584  0.65553900     0.15100
C549        C  0.51140956  0.36782439  0.68662352     0.36800
C550        C  0.32279769  0.23937702  0.70370642     0.36700
N551        N  0.54955305  0.38944248  0.68005698    -0.43600
N552        N  0.28515641  0.21004984  0.70670842    -0.43600
C553        C  0.44310684  0.11435294  0.72483478     0.00000
C554        C  0.43084573  0.13493906  0.70352438    -0.11800
C555        C  0.40784287  0.11156753  0.67916626     0.02300
C556        C  0.39465898  0.06523409  0.67524333    -0.00100
C557        C  0.40225276  0.04278832  0.69703460    -0.11800
C558        C  0.42438306  0.06567101  0.72169717     0.02200
H559        H  0.43764873  0.16932992  0.70545110     0.15100
H560        H  0.39020269  0.00656092  0.69498199     0.15100
C561        C  0.42842703  0.03726708  0.74260755     0.36800
C562        C  0.39607746  0.13583974  0.65931928     0.36700
N563        N  0.43136397  0.01355688  0.75868972    -0.43600
N564        N  0.38635521  0.15522805  0.64359693    -0.43600
C565        C  0.47736843  0.19242455  0.75217368     0.00000
C566        C  0.45440486  0.20352437  0.77258253    -0.11800
C567        C  0.45166279  0.24346780  0.77154873     0.02300
C568        C  0.47751298  0.27894076  0.75163008    -0.00100
C569        C  0.50143394  0.26851172  0.73154903    -0.11800
C570        C  0.50342303  0.22793766  0.73233749     0.02200
H571        H  0.43662144  0.18054970  0.78964425     0.15100
H572        H  0.52007957  0.29332701  0.71521714     0.15100
C573        C  0.53237765  0.22381366  0.71197200     0.36800
C574        C  0.41697217  0.24245163  0.78942542     0.36700
N575        N  0.55624209  0.22112485  0.69587118    -0.43600
N576        N  0.38840909  0.24009691  0.80373714    -0.43600
C577        C  0.65886149  0.53901580  0.72018992     0.00000
C578        C  0.62913225  0.51981045  0.69694949    -0.11800
C579        C  0.63017956  0.54665923  0.67437431     0.02300
C580        C  0.66324869  0.59393129  0.67347613    -0.00100
C581        C  0.69809137  0.61139319  0.69377044    -0.11800
C582        C  0.69672530  0.58466585  0.71660243     0.02200
H583        H  0.60379567  0.48367619  0.69625689     0.15100
H584        H  0.72566536  0.64693446  0.69257784     0.15100
C585        C  0.73202496  0.60724660  0.73748254     0.36800
C586        C  0.59649925  0.52440939  0.65260853     0.36700
N587        N  0.76030853  0.62604571  0.75412828    -0.43600
N588        N  0.56949219  0.50626812  0.63519428    -0.43600
C589        C  0.60610860  0.46211308  0.74712618     0.00000
C590        C  0.60752028  0.42223735  0.75339226    -0.11800
C591        C  0.56836095  0.37774978  0.75314772     0.02300
C592        C  0.52425746  0.37071180  0.74655910    -0.00100
C593        C  0.52292477  0.41098487  0.74180370    -0.11800
C594        C  0.56155852  0.45511626  0.74275828     0.02200
H595        H  0.63935215  0.42519352  0.75979337     0.15100
H596        H  0.49036533  0.40797815  0.73717255     0.15100
C597        C  0.55258046  0.49169892  0.73848810     0.36800
C598        C  0.57664106  0.34210537  0.76153166     0.36700
N599        N  0.54217743  0.51861475  0.73447897    -0.43600
N600        N  0.58583617  0.31525456  0.76835270    -0.43600
C601        C  0.66240780  0.13274123  0.72233609     0.00000
C602        C  0.63846140  0.13214519  0.69786156    -0.11800
C603        C  0.63408885  0.10493283  0.67450928     0.02300
C604        C  0.65725973  0.08047523  0.67393578    -0.00100
C605        C  0.68920762  0.08975679  0.69525207    -0.11800
C606        C  0.69355653  0.11702551  0.71845522     0.02200
H607        H  0.62039963  0.15056567  0.69738183     0.15100
H608        H  0.71080982  0.07503547  0.69407410     0.15100
C609        C  0.72791641  0.12418137  0.73865612     0.36800
C610        C  0.60505095  0.10244473  0.65181723     0.36700
N611        N  0.75609130  0.12822195  0.75388450    -0.43600
N612        N  0.58175471  0.10068178  0.63369622    -0.43600
C613        C  0.60814280  0.15020131  0.75086885     0.00000
C614        C  0.60415517  0.18618019  0.76277814    -0.11800
C615        C  0.56112705  0.18336387  0.76501440     0.02300
C616        C  0.52208258  0.14931731  0.74992054    -0.00100
C617        C  0.52918858  0.11773307  0.73509628    -0.11800
C618        C  0.56686780  0.11305616  0.73982235     0.02200
H619        H  0.63349434  0.21452371  0.77284038     0.15100
H620        H  0.50478695  0.09373617  0.72066740     0.15100
C621        C  0.56061740  0.06892960  0.73259207     0.36800
C622        C  0.55709670  0.21183134  0.78571890     0.36700
N623        N  0.55358637  0.03295302  0.72655169    -0.43600
N624        N  0.55344472  0.23336619  0.80307555    -0.43600
C625        C  0.90900429  0.59848693  0.68120080     0.00000
C626        C  0.93157034  0.58932646  0.70226809    -0.11800
C627        C  0.90895218  0.56627488  0.72696485     0.02300
C628        C  0.86027524  0.54706294  0.73041846    -0.00100
C629        C  0.84042402  0.56281531  0.71060241    -0.11800
C630        C  0.86355517  0.58727328  0.68647707     0.02200
H631        H  0.96759348  0.60084773  0.69964681     0.15100
H632        H  0.80721189  0.55853596  0.71384076     0.15100
C633        C  0.84019345  0.60274777  0.66843697     0.36800
C634        C  0.93755731  0.56237330  0.74776359     0.36700
N635        N  0.82156210  0.61548920  0.65422764    -0.43600
N636        N  0.96111342  0.55956790  0.76401245    -0.43600
C637        C  0.78124348  0.50789791  0.75701728     0.00000
C638        C  0.75075988  0.48663881  0.73440355    -0.11800
C639        C  0.70980107  0.48730954  0.73131770     0.02300
C640        C  0.69560370  0.50805178  0.75180054    -0.00100
C641        C  0.72409909  0.52535317  0.77560703    -0.11800
C642        C  0.76349574  0.52228636  0.77932406     0.02200
H643        H  0.76068332  0.47171368  0.71787685     0.15100
H644        H  0.71637362  0.54172201  0.79214195     0.15100
C645        C  0.77981426  0.52842038  0.80772979     0.36800
C646        C  0.68314744  0.46583330  0.70657516     0.36700
N647        N  0.79130512  0.53239270  0.83080351    -0.43600
N648        N  0.66220938  0.44797979  0.68670483    -0.43600
C649        C  0.84821580  0.32470709  0.72220913     0.00000
C650        C  0.85673474  0.35107870  0.69754922    -0.11800
C651        C  0.88515716  0.35130402  0.67599529     0.02300
C652        C  0.90328945  0.32231379  0.67769316    -0.00100
C653        C  0.88741686  0.28985831  0.69923137    -0.11800
C654        C  0.85959195  0.28975402  0.72074566     0.02200
H655        H  0.84345070  0.37367048  0.69541441     0.15100
H656        H  0.89818803  0.26493952  0.69996298     0.15100
C657        C  0.84892040  0.25636397  0.74247949     0.36800
C658        C  0.89504649  0.38165852  0.65256439     0.36700
N659        N  0.84196574  0.22921478  0.75936276    -0.43600
N660        N  0.90274554  0.40594153  0.63376933    -0.43600
C661        C  0.78126426  0.28960463  0.75442979     0.00000
C662        C  0.77344747  0.25695205  0.77522660    -0.11800
C663        C  0.73441901  0.21219881  0.77559971     0.02300
C664        C  0.69791501  0.19857884  0.75592141    -0.00100
C665        C  0.70461425  0.23251455  0.73624444    -0.11800
C666        C  0.74494423  0.27617086  0.73491481     0.02200
H667        H  0.80023399  0.26423850  0.79004453     0.15100
H668        H  0.67838158  0.22408012  0.72066452     0.15100
C669        C  0.74820060  0.30556182  0.71219599     0.36800
C670        C  0.73725733  0.18152272  0.79512739     0.36700
N671        N  0.74994674  0.32842324  0.69379401    -0.43600
N672        N  0.74157529  0.15843735  0.81104092    -0.43600
C673        C  0.82713801  0.37942355  0.74909474     0.00000
C674        C  0.78948997  0.38093034  0.76051239    -0.11800
C675        C  0.78996398  0.42260149  0.76387164     0.02300
C676        C  0.82487814  0.46424013  0.75110467    -0.00100
C677        C  0.85929177  0.46028281  0.73717473    -0.11800
C678        C  0.86431311  0.42227292  0.73994374     0.02200
H679        H  0.76091977  0.35010149  0.76928059     0.15100
H680        H  0.88489148  0.48718753  0.72467565     0.15100
C681        C  0.90933332  0.43016304  0.73345933     0.36800
C682        C  0.75567334  0.42094850  0.78236598     0.36700
N683        N  0.94592536  0.43821519  0.72810644    -0.43600
N684        N  0.72806220  0.41853641  0.79756533    -0.43600
C685        C  0.91526886  0.57923621  0.83110109     0.00000
C686        C  0.90485727  0.60416362  0.81243387    -0.11800
C687        C  0.87684542  0.58359886  0.78913100     0.02300
C688        C  0.85890256  0.53621501  0.78302966    -0.00100
C689        C  0.86984647  0.51141673  0.80231703    -0.11800
C690        C  0.89710602  0.53230034  0.82610210     0.02200
H691        H  0.91771909  0.64012246  0.81657957     0.15100
H692        H  0.85764214  0.47552298  0.79921412     0.15100
C693        C  0.90760459  0.50529434  0.84440481     0.36800
C694        C  0.86636393  0.61236112  0.77245512     0.36700
N695        N  0.91621674  0.48364497  0.85894945    -0.43600
N696        N  0.85841327  0.63599116  0.75938503    -0.43600
C697        C  0.18406558  0.86946496  0.88982933     0.00000
C698        C  0.18675875  0.82956664  0.88950721    -0.11800
C699        C  0.14711970  0.78574410  0.89207221     0.02300
C700        C  0.10367192  0.78130771  0.89486349    -0.00100
C701        C  0.10119400  0.82116702  0.89503902    -0.11800
C702        C  0.14034050  0.86463468  0.89261505     0.02200
H703        H  0.21994635  0.83256796  0.88769456     0.15100
H704        H  0.06816696  0.81852742  0.89702625     0.15100
C705        C  0.13387865  0.90337367  0.89331293     0.36800
C706        C  0.15227258  0.74628753  0.89278100     0.36700
N707        N  0.12857456  0.93430172  0.89396469    -0.43600
N708        N  0.15641283  0.71464843  0.89350524    -0.43600
C709        C  0.38250338  0.05260963  0.81988270     0.00000
C710        C  0.42896852  0.06687060  0.82024416    -0.11800
C711        C  0.45944748  0.09545586  0.79939434     0.02300
C712        C  0.44412385  0.11312141  0.77739197    -0.00100
C713        C  0.39667709  0.09808697  0.77769792    -0.11800
C714        C  0.36637771  0.06846652  0.79809057     0.02200
H715        H  0.44157266  0.05466610  0.83689588     0.15100
H716        H  0.38291938  0.10978778  0.76147054     0.15100
C717        C  0.31907088  0.05633375  0.79634745     0.36800
C718        C  0.50425151  0.10129953  0.80144981     0.36700
N719        N  0.28117762  0.04663784  0.79486970    -0.43600
N720        N  0.53888470  0.10323811  0.80446969    -0.43600
C721        C  0.29517457  0.19735901  0.87326683     0.00000
C722        C  0.33563913  0.19684696  0.86907497    -0.11800
C723        C  0.33581626  0.15624274  0.87047639     0.02300
C724        C  0.29479533  0.11486721  0.87663098    -0.00100
C725        C  0.25349129  0.11455049  0.87863920    -0.11800
C726        C  0.25330295  0.15552321  0.87691449     0.02200
H727        H  0.36772431  0.22859126  0.86514108     0.15100
H728        H  0.22168372  0.08262368  0.88268333     0.15100
C729        C  0.21023455  0.15370951  0.88013719     0.36800
C730        C  0.37871624  0.15834993  0.86531404     0.36700
N731        N  0.17564228  0.15215613  0.88260497    -0.43600
N732        N  0.41314614  0.16026726  0.86112334    -0.43600
C733        C  0.40568222  0.35696772  0.81453193     0.00000
C734        C  0.44287719  0.35172577  0.82113661    -0.11800
C735        C  0.46616432  0.34206408  0.80038548     0.02300
C736        C  0.45122806  0.33532659  0.77196721    -0.00100
C737        C  0.41742443  0.34681119  0.76568464    -0.11800
C738        C  0.39483706  0.35689942  0.78629805     0.02200
H739        H  0.45225157  0.35259401  0.84284825     0.15100
H740        H  0.40888283  0.34977104  0.74440809     0.15100
C741        C  0.36121231  0.36828567  0.77775209     0.36800
C742        C  0.50305966  0.33615010  0.80967285     0.36700
N743        N  0.33454409  0.37773615  0.77088364    -0.43600
N744        N  0.53193488  0.33110057  0.81819089    -0.43600
C745        C  0.88577657  0.70491554  0.89802550     0.00000
C746        C  0.86338459  0.70344045  0.92297581    -0.11800
C747        C  0.82275787  0.70419606  0.92266304     0.02300
C748        C  0.80416514  0.70693856  0.89691442    -0.00100
C749        C  0.82901080  0.71318672  0.87228387    -0.11800
C750        C  0.86966843  0.71249770  0.87258492     0.02200
H751        H  0.87576150  0.69838348  0.94269812     0.15100
H752        H  0.81537051  0.71625565  0.85249456     0.15100
C753        C  0.89255628  0.71743064  0.84627333     0.36800
C754        C  0.79875813  0.69729036  0.94877568     0.36700
N755        N  0.91081121  0.72143510  0.82515928    -0.43600
N756        N  0.77951558  0.69151009  0.96970921    -0.43600
C757        C  0.63217860  0.57572417  0.82447299     0.00000
C758        C  0.63335416  0.59431226  0.79832329    -0.11800
C759        C  0.63720725  0.57483644  0.77348776     0.02300
C760        C  0.64202091  0.53522509  0.77401875    -0.00100
C761        C  0.63477185  0.51371155  0.80054606    -0.11800
C762        C  0.63100477  0.53373287  0.82539752     0.02200
H763        H  0.63178615  0.62532433  0.79721621     0.15100
H764        H  0.63475905  0.48194747  0.80208954     0.15100
C765        C  0.62806735  0.51132523  0.85153758     0.36800
C766        C  0.63241962  0.59638815  0.74889613     0.36700
N767        N  0.62579783  0.49341121  0.87250980    -0.43600
N768        N  0.62742366  0.61511948  0.73032677    -0.43600
C769        C  0.98264346  0.60780754  0.03796382     0.00000
C770        C  0.93946409  0.58951115  0.02540997    -0.11800
C771        C  0.93513375  0.59013270  0.99634787     0.02300
C772        C  0.97462052  0.60860868  0.97910128    -0.00100
C773        C  0.01699680  0.62172518  0.99155829    -0.11800
C774        C  0.02137245  0.62169524  0.02066539     0.02200
H775        H  0.90932920  0.57820887  0.03836167     0.15100
H776        H  0.04753036  0.63527967  0.97870698     0.15100
C777        C  0.06650637  0.63861138  0.03219984     0.36800
C778        C  0.88998598  0.57414489  0.98515427     0.36700
N779        N  0.10260031  0.65230183  0.04157645    -0.43600
N780        N  0.85373193  0.56149570  0.97636068    -0.43600
C781        C  0.33191834  0.01221242  0.03207983     0.00000
C782        C  0.33362637  0.97690763  0.01801530    -0.11800
C783        C  0.33314390  0.97508696  0.98873317     0.02300
C784        C  0.33262687  0.00997787  0.97317575    -0.00100
C785        C  0.33442823  0.04695223  0.98731892    -0.11800
C786        C  0.33345564  0.04810576  0.01642111     0.02200
H787        H  0.33149009  0.94871803  0.02984790     0.15100
H788        H  0.33407778  0.07396158  0.97551550     0.15100
C789        C  0.33150976  0.08531666  0.02947456     0.36800
C790        C  0.32773209  0.93461327  0.97537915     0.36700
N791        N  0.32928026  0.11488211  0.03971144    -0.43600
N792        N  0.32274415  0.90188489  0.96468221    -0.43600
C793        C  0.16219561  0.88632272  0.10125500     0.00000
C794        C  0.13342051  0.87466749  0.12459677    -0.11800
C795        C  0.09480516  0.83088735  0.12724116     0.02300
C796        C  0.08391247  0.79847091  0.10579101    -0.00100
C797        C  0.10983510  0.81190338  0.08107517    -0.11800
C798        C  0.14920647  0.85533309  0.07877529     0.02200
H799        H  0.14311356  0.89846119  0.14189220     0.15100
H800        H  0.10127315  0.78743505  0.06428312     0.15100
C801        C  0.17660492  0.86642276  0.05371362     0.36800
C802        C  0.06852598  0.81964701  0.15276496     0.36700
N803        N  0.19857205  0.87520758  0.03365818    -0.43600
N804        N  0.04766333  0.81053125  0.17329330    -0.43600
C805        C  0.86127234  0.20896018  0.12825930     0.00000
C806        C  0.85389564  0.17743048  0.14952148    -0.11800
C807        C  0.81393193  0.13392789  0.15031254     0.02300
C808        C  0.77986553  0.12117552  0.12966710    -0.00100
C809        C  0.78556342  0.15390742  0.10965113    -0.11800
C810        C  0.82600439  0.19727654  0.10856922     0.02200
H811        H  0.88054195  0.18595921  0.16485029     0.15100
H812        H  0.75998372  0.14434588  0.09344858     0.15100
C813        C  0.83240376  0.22689107  0.08526578     0.36800
C814        C  0.80940107  0.10258333  0.17212444     0.36700
N815        N  0.83776707  0.25045478  0.06644257    -0.43600
N816        N  0.80589526  0.07755174  0.18962726    -0.43600
C817        C  0.33328485  0.33574659  0.96427235     0.00000
C818        C  0.34390706  0.37444744  0.98042092    -0.11800
C819        C  0.34493740  0.37279986  0.00983060     0.02300
C820        C  0.33579396  0.33194497  0.02343791    -0.00100
C821        C  0.32833812  0.29460875  0.00701413    -0.11800
C822        C  0.32706837  0.29611109  0.97791748     0.02200
H823        H  0.34903003  0.40513993  0.97017523     0.15100
H824        H  0.32202823  0.26328080  0.01700921     0.15100
C825        C  0.31923669  0.25613768  0.96257985     0.36800
C826        C  0.35231478  0.41232872  0.02537899     0.36700
N827        N  0.31300816  0.22414255  0.95031756    -0.43600
N828        N  0.35814750  0.44409611  0.03774000    -0.43600
C829        C  0.33022824  0.20746574  0.13193587     0.00000
C830        C  0.36087380  0.20120261  0.11559346    -0.11800
C831        C  0.36078114  0.15985973  0.11673763     0.02300
C832        C  0.32970230  0.12412233  0.13458119    -0.00100
C833        C  0.30222247  0.13217668  0.15267630    -0.11800
C834        C  0.30242454  0.17335953  0.15162129     0.02200
H835        H  0.38224322  0.22701440  0.10032060     0.15100
H836        H  0.27864255  0.10517956  0.16668492     0.15100
C837        C  0.27248048  0.17908832  0.17034111     0.36800
C838        C  0.38929469  0.15315698  0.09733837     0.36700
N839        N  0.24855352  0.18370382  0.18538631    -0.43600
N840        N  0.41188927  0.14741661  0.08178395    -0.43600
C841        C  0.16902951  0.27254803  0.08870850     0.00000
C842        C  0.13477417  0.24421983  0.10784080    -0.11800
C843        C  0.09527232  0.24667332  0.11062976     0.02300
C844        C  0.09010917  0.27780275  0.09392556    -0.00100
C845        C  0.12162697  0.30169122  0.07249968    -0.11800
C846        C  0.16072846  0.29879399  0.06949785     0.02200
H847        H  0.14071388  0.22344617  0.12240282     0.15100
H848        H  0.11668800  0.32420469  0.05884921     0.15100
C849        C  0.19270192  0.32453994  0.04736508     0.36800
C850        C  0.06327184  0.22065956  0.13264962     0.36700
N851        N  0.21840050  0.34494553  0.02964743    -0.43600
N852        N  0.03758546  0.19994422  0.15030244    -0.43600
C853        C  0.63710104  0.61320800  0.03286687     0.00000
C854        C  0.60351180  0.61911593  0.01993829    -0.11800
C855        C  0.60114250  0.62072692  0.99068123     0.02300
C856        C  0.63221188  0.61528749  0.97382880    -0.00100
C857        C  0.66214902  0.60409185  0.98699147    -0.11800
C858        C  0.66521517  0.60362188  0.01612542     0.02200
H859        H  0.58176994  0.62656556  0.03265401     0.15100
H860        H  0.68571112  0.59886374  0.97457188     0.15100
C861        C  0.69925562  0.59567241  0.02841584     0.36800
C862        C  0.56876787  0.63127834  0.97876362     0.36700
N863        N  0.72654634  0.58957885  0.03848042    -0.43600
N864        N  0.54296046  0.63996820  0.96920984    -0.43600
C865        C  0.71075082  0.80074108  0.10171487     0.00000
C866        C  0.73422281  0.83305683  0.12292015    -0.11800
C867        C  0.73507150  0.87459833  0.12353676     0.02300
C868        C  0.71146657  0.88381920  0.10284608    -0.00100
C869        C  0.69125149  0.85330806  0.08052888    -0.11800
C870        C  0.69102701  0.81225875  0.07958152     0.02200
H871        H  0.75004913  0.82495248  0.13980605     0.15100
H872        H  0.67382994  0.86071671  0.06427989     0.15100
C873        C  0.66742919  0.78155680  0.05658248     0.36800
C874        C  0.75711398  0.90523202  0.14677578     0.36700
N875        N  0.64846770  0.75691126  0.03819575    -0.43600
N876        N  0.77464220  0.92983010  0.16539710    -0.43600
C877        C  0.78648662  0.65340530  0.12993813     0.00000
C878        C  0.82803866  0.69445489  0.13507143    -0.11800
C879        C  0.86999606  0.69626198  0.13469688     0.02300
C880        C  0.87121278  0.65597457  0.12948747    -0.00100
C881        C  0.82952836  0.61437908  0.12595677    -0.11800
C882        C  0.78745911  0.61275124  0.12593498     0.02200
H883        H  0.82809148  0.72596988  0.13847566     0.15100
H884        H  0.82984751  0.58318850  0.12202560     0.15100
C885        C  0.74642648  0.56922830  0.12044061     0.36800
C886        C  0.91102610  0.74039343  0.13918648     0.36700
N887        N  0.71379180  0.53413399  0.11594368    -0.43600
N888        N  0.94360899  0.77597876  0.14267709    -0.43600
C889        C  0.65337441  0.86140608  0.87507043     0.00000
C890        C  0.68908567  0.85800662  0.86288590    -0.11800
C891        C  0.69045706  0.81761503  0.86476780     0.02300
C892        C  0.65554427  0.77901273  0.87921569    -0.00100
C893        C  0.61866093  0.78152231  0.89028718    -0.11800
C894        C  0.61743711  0.82217567  0.88853842     0.02200
H895        H  0.71670122  0.88742514  0.85219533     0.15100
H896        H  0.59163057  0.75226779  0.90141610     0.15100
C897        C  0.58035099  0.82336885  0.90230273     0.36800
C898        C  0.72808031  0.81677800  0.85139673     0.36700
N899        N  0.55077681  0.82446637  0.91346728    -0.43600
N900        N  0.75814368  0.81599848  0.84066847    -0.43600
C901        C  0.65761365  0.99240972  0.96841360     0.00000
C902        C  0.69987177  0.02093360  0.98164653    -0.11800
C903        C  0.70367324  0.02394090  0.01065862     0.02300
C904        C  0.66466850  0.99745959  0.02754244    -0.00100
C905        C  0.62170139  0.97089837  0.01452920    -0.11800
C906        C  0.61784018  0.96829411  0.98516566     0.02200
H907        H  0.73059496  0.04105794  0.96921210     0.15100
H908        H  0.59140009  0.95068165  0.02726009     0.15100
C909        C  0.57317149  0.93930759  0.97298608     0.36800
C910        C  0.74822559  0.05515606  0.02247852     0.36700
N911        N  0.53717346  0.91607871  0.96340416    -0.43600
N912        N  0.78387134  0.08031807  0.03191207    -0.43600
C913        C  0.64440652  0.11310223  0.77585914     0.00000
C914        C  0.63587460  0.06856231  0.76961446    -0.11800
C915        C  0.63001633  0.03678852  0.79024026     0.02300
C916        C  0.63066018  0.04742324  0.81862465    -0.00100
C917        C  0.63291400  0.08866709  0.82536535    -0.11800
C918        C  0.63896540  0.12088304  0.80463858     0.02200
H919        H  0.63318088  0.05712512  0.74839825     0.15100
H920        H  0.63282233  0.09722674  0.84715913     0.15100
C921        C  0.64382115  0.16325070  0.81450116     0.36800
C922        C  0.62286546  0.99300680  0.78144760     0.36700
N923        N  0.64827954  0.19692223  0.82338791    -0.43600
N924        N  0.61699671  0.95795725  0.77421823    -0.43600
C925        C  0.00617452  0.34515443  0.96731509     0.00000
C926        C  0.99054425  0.37006769  0.98230952    -0.11800
C927        C  0.98761100  0.36772757  0.01173182     0.02300
C928        C  0.99967133  0.33948518  0.02635132    -0.00100
C929        C  0.01810371  0.31729592  0.01136148    -0.11800
C930        C  0.02210247  0.32042218  0.98236233     0.02200
H931        H  0.97881506  0.38971733  0.97105240     0.15100
H932        H  0.02950182  0.29714228  0.02241818     0.15100
C933        C  0.04348167  0.29837070  0.96861765     0.36800
C934        C  0.97017356  0.39264631  0.02629478     0.36700
N935        N  0.06087565  0.28101933  0.95759830    -0.43600
N936        N  0.95637892  0.41267913  0.03814694    -0.43600
C937        C  0.87634028  0.19773693  0.87947554     0.00000
C938        C  0.83523642  0.19578466  0.88607166    -0.11800
C939        C  0.79349683  0.15449751  0.88598638     0.02300
C940        C  0.79200883  0.11330351  0.87924756    -0.00100
C941        C  0.83294412  0.11512593  0.87205656    -0.11800
C942        C  0.87499262  0.15685487  0.87209773     0.02200
H943        H  0.83546296  0.22687205  0.89136369     0.15100
H944        H  0.83223677  0.08382596  0.86671935     0.15100
C945        C  0.91586074  0.15638618  0.86470133     0.36800
C946        C  0.75297258  0.15617899  0.89266616     0.36700
N947        N  0.94854808  0.15589492  0.85872601    -0.43600
N948        N  0.72067051  0.15774298  0.89807024    -0.43600
C949        C  0.12196382  0.34808105  0.86589427     0.00000
C950        C  0.15810642  0.37807200  0.88355226    -0.11800
C951        C  0.19965693  0.37857631  0.88404035     0.02300
C952        C  0.20595709  0.34915500  0.86627295    -0.00100
C953        C  0.17077376  0.32100917  0.84758708    -0.11800
C954        C  0.12920568  0.32022730  0.84721273     0.02200
H955        H  0.15295410  0.39924956  0.89822722     0.15100
H956        H  0.17525032  0.29845233  0.83370169     0.15100
C957        C  0.09441673  0.28996942  0.82764244     0.36800
C958        C  0.23350113  0.40644879  0.90471699     0.36700
N959        N  0.06653339  0.26570891  0.81197696    -0.43600
N960        N  0.26069234  0.42834887  0.92136996    -0.43600
C961        C  0.93100755  0.35914228  0.81788605     0.00000
C962        C  0.88925476  0.35615422  0.82431095    -0.11800
C963        C  0.85696674  0.34913890  0.80343830     0.02300
C964        C  0.86557904  0.34453326  0.77474186    -0.00100
C965        C  0.91030901  0.35311643  0.76878988    -0.11800
C966        C  0.94162667  0.35862552  0.78954893     0.02200
H967        H  0.88054442  0.35682314  0.84601474     0.15100
H968        H  0.92209579  0.35561458  0.74761694     0.15100
C969        C  0.98416457  0.36257646  0.78078915     0.36800
C970        C  0.81438660  0.34413449  0.81292651     0.36700
N971        N  0.01787155  0.36516773  0.77356340    -0.43600
N972        N  0.78044438  0.33957038  0.82144016    -0.43600
C973        C  0.06223945  0.66779746  0.32799971     0.00000
C974        C  0.07487060  0.63472834  0.33026293    -0.11800
C975        C  0.10294382  0.63085830  0.31016430     0.02300
C976        C  0.11788363  0.65964452  0.28595241    -0.00100
C977        C  0.10868786  0.69581755  0.28567305    -0.11800
C978        C  0.08131429  0.69989046  0.30590853     0.02200
H979        H  0.06316391  0.61193221  0.34816034     0.15100
H980        H  0.12154666  0.72011210  0.26851039     0.15100
C981        C  0.07384600  0.73776105  0.30313344     0.36800
C982        C  0.11895447  0.60048350  0.31730791     0.36700
N983        N  0.06823099  0.76829192  0.30052820    -0.43600
N984        N  0.13157728  0.57630970  0.32413525    -0.43600
C985        C  0.05954021  0.63822870  0.18317492     0.00000
C986        C  0.04078471  0.63464250  0.20954095    -0.11800
C987        C  0.06440334  0.63694380  0.23393765     0.02300
C988        C  0.11186224  0.64869225  0.23302988    -0.00100
C989        C  0.12635612  0.64394639  0.20607992    -0.11800
C990        C  0.10233907  0.64122667  0.18151850     0.02200
H991        H  0.00614464  0.62824796  0.21119239     0.15100
H992        H  0.15467896  0.63848804  0.20394634     0.15100
C993        C  0.12221574  0.64068469  0.15500365     0.36800
C994        C  0.03418561  0.61816256  0.25782288     0.36700
N995        N  0.13824287  0.64056909  0.13371532    -0.43600
N996        N  0.00828279  0.60218917  0.27606085    -0.43600
C997        C  0.04107335  0.40200884  0.32401470     0.00000
C998        C  0.08335555  0.44219561  0.32923879    -0.11800
C999        C  0.11524736  0.46572903  0.30764001     0.02300
C1000       C  0.10590149  0.44885194  0.27963217    -0.00100
C1001       C  0.06139669  0.41020003  0.27482480    -0.11800
C1002       C  0.02975577  0.38723691  0.29625280     0.02200
H1003       H  0.09271489  0.45404030  0.35055438     0.15100
H1004       H  0.04912593  0.39808263  0.25405226     0.15100
C1005       C  0.98515117  0.34891327  0.28886210     0.36800
C1006       C  0.15890928  0.50499165  0.31545884     0.36700
N1007       N  0.94940300  0.31834600  0.28290880    -0.43600
N1008       N  0.19401844  0.53598649  0.32200451    -0.43600
C1009       C  0.06901167  0.39995103  0.17724881     0.00000
C1010       C  0.08318335  0.38012857  0.19746195    -0.11800
C1011       C  0.10832519  0.40432411  0.22100048     0.02300
C1012       C  0.11923929  0.45027949  0.22589817    -0.00100
C1013       C  0.11048739  0.47182680  0.20332106    -0.11800
C1014       C  0.08479047  0.44708113  0.17975016     0.02200
H1015       H  0.07346270  0.34450306  0.19534186     0.15100
H1016       H  0.12252497  0.50803902  0.20399979     0.15100
C1017       C  0.07531383  0.47110552  0.15853138     0.36800
C1018       C  0.11737922  0.37808542  0.24079647     0.36700
N1019       N  0.06783754  0.49047176  0.14151006    -0.43600
N1020       N  0.12232479  0.35441579  0.25582763    -0.43600
C1021       C  0.14337942  0.52397320  0.25522907     0.00000
C1022       C  0.18519047  0.56591441  0.25975807    -0.11800
C1023       C  0.18767546  0.60879180  0.26199119     0.02300
C1024       C  0.14730342  0.61156466  0.26006905    -0.00100
C1025       C  0.10577689  0.56931092  0.25703365    -0.11800
C1026       C  0.10327367  0.52732513  0.25387348     0.02200
H1027       H  0.21654672  0.56572010  0.26266664     0.15100
H1028       H  0.07383257  0.56882846  0.25675500     0.15100
C1029       C  0.05782897  0.48874982  0.24843260     0.36800
C1030       C  0.23210503  0.64785032  0.26835857     0.36700
N1031       N  0.02090321  0.45918962  0.24367465    -0.43600
N1032       N  0.26822039  0.67842009  0.27364542    -0.43600
C1033       C  0.32648476  0.44895973  0.27199160     0.00000
C1034       C  0.33058248  0.40986505  0.26771267    -0.11800
C1035       C  0.33719094  0.38649321  0.28966482     0.02300
C1036       C  0.34061035  0.40154269  0.31742573    -0.00100
C1037       C  0.34041957  0.44208060  0.32202823    -0.11800
C1038       C  0.33413381  0.46588993  0.30006860     0.02200
H1039       H  0.33020161  0.39734748  0.24701287     0.15100
H1040       H  0.34334951  0.45444544  0.34323317     0.15100
C1041       C  0.33406622  0.50675248  0.30787866     0.36800
C1042       C  0.34159298  0.34760794  0.28283433     0.36700
N1043       N  0.33402353  0.53914299  0.31512369    -0.43600
N1044       N  0.34541773  0.31667214  0.27728502    -0.43600
C1045       C  0.30997174  0.44731437  0.21827370     0.00000
C1046       C  0.33843038  0.46741819  0.19445846    -0.11800
C1047       C  0.33873104  0.44097827  0.17197512     0.02300
C1048       C  0.30780021  0.39320955  0.17153613    -0.00100
C1049       C  0.27401432  0.37436988  0.19248306    -0.11800
C1050       C  0.27402579  0.40067745  0.21513484     0.02200
H1051       H  0.36232161  0.50395101  0.19349384     0.15100
H1052       H  0.24797715  0.33821597  0.19173186     0.15100
C1053       C  0.23909789  0.37688107  0.23608470     0.36800
C1054       C  0.37141276  0.46407266  0.14975195     0.36700
N1055       N  0.21114982  0.35659632  0.25272733    -0.43600
N1056       N  0.39766332  0.48268482  0.13197524    -0.43600
C1057       C  0.18834227  0.47882973  0.25663291     0.00000
C1058       C  0.22013462  0.50199939  0.23472815    -0.11800
C1059       C  0.26160065  0.50215863  0.23162080     0.02300
C1060       C  0.27461078  0.47905380  0.25095324    -0.00100
C1061       C  0.24326225  0.45634045  0.27299846    -0.11800
C1062       C  0.20152915  0.45552611  0.27604761     0.02200
H1063       H  0.21163217  0.51934396  0.21902641     0.15100
H1064       H  0.24937908  0.43581747  0.28750424     0.15100
C1065       C  0.17259746  0.42591116  0.29815737     0.36800
C1066       C  0.28949394  0.52603875  0.20765780     0.36700
N1067       N  0.15057013  0.40113221  0.31587413    -0.43600
N1068       N  0.31129170  0.54559848  0.18833964    -0.43600
C1069       C  0.52796564  0.65449903  0.27343067     0.00000
C1070       C  0.50686539  0.61945523  0.29388802    -0.11800
C1071       C  0.53158351  0.61627539  0.31635714     0.02300
C1072       C  0.57912910  0.64780628  0.31891706    -0.00100
C1073       C  0.60049431  0.68260827  0.29875736    -0.11800
C1074       C  0.57578246  0.68693708  0.27682029     0.02200
H1075       H  0.47054242  0.59453706  0.29312197     0.15100
H1076       H  0.63665693  0.70813792  0.30075979     0.15100
C1077       C  0.60021448  0.72635955  0.25869693     0.36800
C1078       C  0.50663787  0.58068233  0.33677221     0.36700
N1079       N  0.61962392  0.75799136  0.24426287    -0.43600
N1080       N  0.48631674  0.55226564  0.35315661    -0.43600
C1081       C  0.58165835  0.64571954  0.17552542     0.00000
C1082       C  0.56359581  0.67425190  0.17305924    -0.11800
C1083       C  0.54186958  0.68246402  0.19538287     0.02300
C1084       C  0.53113335  0.65653944  0.22087456    -0.00100
C1085       C  0.55212693  0.62929995  0.22287735    -0.11800
C1086       C  0.57652777  0.62381798  0.20114656     0.02200
H1087       H  0.57026867  0.69392552  0.15395953     0.15100
H1088       H  0.54925894  0.61086267  0.24191782     0.15100
C1089       C  0.59568900  0.59519336  0.20595773     0.36800
C1090       C  0.53992213  0.72310052  0.19103579     0.36700
N1091       N  0.61102851  0.57230460  0.21002807    -0.43600
N1092       N  0.54118083  0.75666754  0.18513910    -0.43600
C1093       C  0.36495709  0.52246995  0.24546788     0.00000
C1094       C  0.36783314  0.56371263  0.25373880    -0.11800
C1095       C  0.41035802  0.60521194  0.25683339     0.02300
C1096       C  0.45187060  0.61033042  0.24583031    -0.00100
C1097       C  0.44808834  0.56861944  0.23749820    -0.11800
C1098       C  0.40755631  0.52593217  0.23938293     0.02200
H1099       H  0.33740726  0.56279906  0.26124549     0.15100
H1100       H  0.47711008  0.56702755  0.23103382     0.15100
C1101       C  0.41219840  0.48650872  0.23472586     0.36800
C1102       C  0.41037191  0.63682014  0.27679613     0.36700
N1103       N  0.41758591  0.45607731  0.23077801    -0.43600
N1104       N  0.40936839  0.66004447  0.29405099    -0.43600
C1105       C  0.52258792  0.86249395  0.27205552     0.00000
C1106       C  0.49909985  0.86943630  0.29458996    -0.11800
C1107       C  0.52168037  0.89976349  0.31693428     0.02300
C1108       C  0.56987069  0.92411420  0.31860933    -0.00100
C1109       C  0.59352471  0.91482297  0.29826393    -0.11800
C1110       C  0.57095610  0.88262541  0.27681042     0.02200
H1111       H  0.46205486  0.85020924  0.29559933     0.15100
H1112       H  0.63027742  0.92991506  0.30058817     0.15100
C1113       C  0.59843726  0.86560626  0.26539937     0.36800
C1114       C  0.49394788  0.90372115  0.33828527     0.36700
N1115       N  0.62261718  0.85310109  0.25815325    -0.43600
N1116       N  0.47149918  0.90660293  0.35536139    -0.43600
C1117       C  0.52098090  0.85422462  0.21727125     0.00000
C1118       C  0.56015802  0.85199072  0.21084823    -0.11800
C1119       C  0.59267338  0.88033172  0.19090000     0.02300
C1120       C  0.58490140  0.90989988  0.17435924    -0.00100
C1121       C  0.54155733  0.90499910  0.17599602    -0.11800
C1122       C  0.50869028  0.87528369  0.19567430     0.02200
H1123       H  0.56484034  0.82641831  0.22086941     0.15100
H1124       H  0.53229847  0.92238557  0.16075158     0.15100
C1125       C  0.46190284  0.85957012  0.18810381     0.36800
C1126       C  0.63229532  0.87596683  0.18685383     0.36700
N1127       N  0.42473522  0.84633339  0.18085441    -0.43600
N1128       N  0.66380303  0.87205193  0.18373627    -0.43600
C1129       C  0.48803369  0.78198535  0.24786960     0.00000
C1130       C  0.50358546  0.76964345  0.27162877    -0.11800
C1131       C  0.50740940  0.73043947  0.27278921     0.02300
C1132       C  0.49508232  0.69977729  0.24932383    -0.00100
C1133       C  0.47053800  0.70723281  0.22824452    -0.11800
C1134       C  0.46947218  0.74830781  0.22630198     0.02200
H1135       H  0.51288586  0.79057430  0.29020771     0.15100
H1136       H  0.45485927  0.68202796  0.21172651     0.15100
C1137       C  0.44916399  0.75444659  0.20154438     0.36800
C1138       C  0.51871277  0.72164970  0.30024153     0.36700
N1139       N  0.43275538  0.75807311  0.18133194    -0.43600
N1140       N  0.52744722  0.71586303  0.32263647    -0.43600
C1141       C  0.34192647  0.93212366  0.32475846     0.00000
C1142       C  0.33890133  0.94731225  0.29831603    -0.11800
C1143       C  0.33485359  0.92263321  0.27411285     0.02300
C1144       C  0.33042996  0.87815126  0.27563258    -0.00100
C1145       C  0.33864772  0.86590164  0.30239636    -0.11800
C1146       C  0.34329407  0.89149540  0.32664304     0.02200
H1147       H  0.33998974  0.97963561  0.29637572     0.15100
H1148       H  0.33989050  0.83486381  0.30453877     0.15100
C1149       C  0.34953429  0.87515450  0.35305291     0.36800
C1150       C  0.34140676  0.94897538  0.24908324     0.36700
N1151       N  0.35470659  0.86192653  0.37415500    -0.43600
N1152       N  0.34820754  0.97278226  0.23014559    -0.43600
C1153       C  0.30818414  0.91373266  0.17602137     0.00000
C1154       C  0.27273282  0.89294360  0.19583625    -0.11800
C1155       C  0.27545194  0.86885408  0.21873544     0.02300
C1156       C  0.31490545  0.86494239  0.22256193    -0.00100
C1157       C  0.34690907  0.88047620  0.20030531    -0.11800
C1158       C  0.34417684  0.90481716  0.17752142     0.02200
H1159       H  0.24362641  0.89763679  0.19438876     0.15100
H1160       H  0.37499744  0.87465218  0.20049409     0.15100
C1161       C  0.37900397  0.92018690  0.15615111     0.36800
C1162       C  0.23978397  0.85389510  0.23958249     0.36700
N1163       N  0.40681941  0.93210096  0.13898647    -0.43600
N1164       N  0.21125211  0.84261655  0.25621854    -0.43600
C1165       C  0.27719555  0.79510709  0.25319761     0.00000
C1166       C  0.25108446  0.77998119  0.27796756    -0.11800
C1167       C  0.21332860  0.73497987  0.28151607     0.02300
C1168       C  0.19260416  0.70390819  0.25833183    -0.00100
C1169       C  0.21970665  0.71901143  0.23371613    -0.11800
C1170       C  0.26077691  0.76215007  0.23113941     0.02200
H1171       H  0.26027912  0.80231324  0.29571272     0.15100
H1172       H  0.21150898  0.69684716  0.21624005     0.15100
C1173       C  0.28604930  0.77045640  0.20538130     0.36800
C1174       C  0.20156610  0.72159918  0.31037655     0.36700
N1175       N  0.30592130  0.77624644  0.18470022    -0.43600
N1176       N  0.19357166  0.71230501  0.33375776    -0.43600
C1177       C  0.36679364  0.84083937  0.24904291     0.00000
C1178       C  0.36366358  0.79796126  0.25200892    -0.11800
C1179       C  0.40186505  0.79238261  0.25072892     0.02300
C1180       C  0.44687831  0.83059545  0.24593453    -0.00100
C1181       C  0.45028235  0.87388395  0.24528151    -0.11800
C1182       C  0.41235125  0.87951039  0.24726473     0.02200
H1183       H  0.33105940  0.76755220  0.25643879     0.15100
H1184       H  0.48409947  0.90446763  0.24358600     0.15100
C1185       C  0.42318469  0.92640755  0.24776474     0.36800
C1186       C  0.39162861  0.74665194  0.25643396     0.36700
N1187       N  0.43499311  0.96492455  0.24839546    -0.43600
N1188       N  0.38041250  0.70894895  0.26093629    -0.43600
loop_ 
_geom_bond_atom_site_label_1 
_geom_bond_atom_site_label_2 
_geom_bond_distance 
_geom_bond_site_symmetry_2 
_ccdc_geom_bond_type 
C1         C1144   1.591       .  S
C1         C1156   1.568       .  S
C1         C1165   1.603       .  S
C1         C1177   1.589       .  S
C2         C1105   1.619       .  S
C2         C1117   1.600       .  S
C2         C1129   1.588       .  S
C2         C1180   1.589       .  S
C3         C1069   1.572       .  S
C3         C1084   1.618       .  S
C3         C1096   1.599       .  S
C3         C1132   1.604       .  S
C4         C1033   1.596       .  S
C4         C1045   1.588       .  S
C4         C1060   1.596       .  S
C4         C1093   1.580       .  S
C5         C1000   1.583       .  S
C5         C1012   1.585       .  S
C5         C1021   1.591       .  S
C5         C1057   1.600       .  S
C6          C976   1.573       .  S
C6          C988   1.611       .  S
C6         C1024   1.584       .  S
C6         C1168   1.622       .  S
In7           O9   2.210       .  S
In7          O10   2.291   1_655  S
In7          O18   2.269   1_655  S
In7          O12   2.230   1_655  S
In7          O14   2.253       .  S
In7          O15   2.281       .  S
In7          O16   2.207       .  S
In7          O19   2.245       .  S
C8           O14   1.262       .  A
C8           O16   1.259       .  A
C8          C937   1.479       .  S
O9           C17   1.259   1_655  A
O10          C17   1.268       .  A
C11          O18   1.267       .  A
C11          O12   1.261       .  A
C11         C949   1.491       .  S
C13          O15   1.263       .  A
C13          O19   1.259       .  A
C13         C961   1.498       .  S
C17         C925   1.488       .  S
In20         O22   2.254       .  S
In20         O23   2.281   1_565  S
In20         O31   2.267       .  S
In20         O25   2.245       .  S
In20         O27   2.260   1_565  S
In20         O28   2.294       .  S
In20         O29   2.197   1_565  S
In20         O32   2.208       .  S
C21          O27   1.266       .  A
C21          O29   1.258       .  A
C21         C940   1.479       .  S
O22          C30   1.261   1_565  A
O23          C30   1.263       .  A
C24          O31   1.266       .  A
C24          O25   1.263       .  A
C24         C889   1.497       .  S
C26          O28   1.269       .  A
C26          O32   1.259       .  A
C26         C901   1.491       .  S
C30         C916   1.498       .  S
In33         O35   2.226       .  S
In33         O36   2.281       .  S
In33         O44   2.263       .  S
In33         O38   2.217       .  S
In33         O40   2.254       .  S
In33         O41   2.235       .  S
In33         O42   2.225       .  S
In33         O45   2.279       .  S
C34          O40   1.260       .  A
C34          O42   1.256       .  A
C34         C865   1.479       .  S
O35          C43   1.257       .  A
O36          C43   1.264       .  A
C37          O44   1.267       .  A
C37          O38   1.261       .  A
C37         C877   1.489       .  S
C39          O41   1.257       .  A
C39          O45   1.263       .  A
C39        C1081   1.493       .  S
C43         C853   1.482       .  S
In46         O48   2.248       .  S
In46         O49   2.291       .  S
In46         O57   2.287       .  S
In46         O51   2.225       .  S
In46         O53   2.241       .  S
In46         O54   2.282       .  S
In46         O55   2.203       .  S
In46         O58   2.227       .  S
C47          O53   1.261       .  A
C47          O55   1.258       .  A
C47         C841   1.465       .  S
O48          C56   1.256       .  A
O49          C56   1.266       .  A
C50          O57   1.266       .  A
C50          O51   1.257       .  A
C50         C829   1.486       .  S
C52          O54   1.266       .  A
C52          O58   1.261       .  A
C52         C820   1.491       .  S
C56        C1048   1.502       .  S
In59         O61   2.211       .  S
In59         O62   2.288       .  S
In59         O70   2.281       .  S
In59         O64   2.233       .  S
In59         O66   2.229   1_655  S
In59         O67   2.304   1_655  S
In59         O68   2.216   1_655  S
In59         O71   2.225   1_655  S
C60          O66   1.261       .  A
C60          O68   1.261       .  A
C60         C844   1.464       .  S
O61          C69   1.259       .  A
O62          C69   1.269       .  A
C63          O70   1.264       .  A
C63          O64   1.256       .  A
C63         C805   1.489       .  S
C65          O67   1.266       .  A
C65          O71   1.256       .  A
C65        C1009   1.500       .  S
C69         C928   1.486       .  S
In72         O74   2.246       .  S
In72         O75   2.288       .  S
In72         O83   2.278   1_565  S
In72         O77   2.243   1_565  S
In72         O79   2.246       .  S
In72         O80   2.281       .  S
In72         O81   2.223       .  S
In72         O84   2.220       .  S
C73          O79   1.261       .  A
C73          O81   1.260       .  A
C73         C868   1.472       .  S
O74          C82   1.257       .  A
O75          C82   1.264       .  A
C76          O83   1.263       .  A
C76          O77   1.258       .  A
C76         C808   1.488       .  S
C78          O80   1.267       .  A
C78          O84   1.260       .  A
C78         C904   1.488       .  S
C82        C1120   1.495       .  S
In85         O87   2.214   1_565  S
In85         O88   2.257       .  S
In85         O96   2.267   1_565  S
In85         O90   2.229   1_565  S
In85         O92   2.231       .  S
In85         O93   2.274       .  S
In85         O94   2.222       .  S
In85         O97   2.228       .  S
C86          O92   1.261       .  A
C86          O94   1.259       .  A
C86         C793   1.467       .  S
O87          C95   1.260       .  A
O88          C95   1.266   1_565  A
C89          O96   1.264       .  A
C89          O90   1.259       .  A
C89         C832   1.483       .  S
C91          O93   1.264       .  A
C91          O97   1.256       .  A
C91        C1153   1.491       .  S
C95         C781   1.478       .  S
In98        O100   2.269   1_655  S
In98        O101   2.255       .  S
In98        O109   2.267       .  S
In98        O103   2.231       .  S
In98        O105   2.222   1_655  S
In98        O106   2.267       .  S
In98        O107   2.232   1_655  S
In98        O110   2.226   1_655  S
C99         O105   1.261       .  A
C99         O107   1.259       .  A
C99         C796   1.470       .  S
O100        C108   1.255       .  A
O101        C108   1.259   1_655  A
C102        O109   1.266       .  A
C102        O103   1.258       .  A
C102        C880   1.488       .  S
C104        O106   1.263       .  A
C104        O110   1.257   1_655  A
C104        C769   1.486       .  S
C108        C985   1.493       .  S
In111       O113   2.277       .  S
In111       O114   2.239       .  S
In111       O122   2.286       .  S
In111       O116   2.238       .  S
In111       O118   2.233       .  S
In111       O119   2.288       .  S
In111       O120   2.241       .  S
In111       O123   2.244       .  S
C112        O118   1.259       .  A
C112        O120   1.260       .  A
C112        C748   1.473       .  S
O113        C121   1.265       .  A
O114        C121   1.258       .  A
C115        O122   1.266       .  A
C115        O116   1.259       .  A
C115        C892   1.494       .  S
C117        O119   1.260       .  A
C117        O123   1.258       .  A
C117        C757   1.497       .  S
C121        C856   1.495       .  S
In124       O126   2.278       .  S
In124       O127   2.240       .  S
In124       O135   2.264       .  S
In124       O129   2.232       .  S
In124       O131   2.249       .  S
In124       O132   2.292       .  S
In124       O133   2.196       .  S
In124       O136   2.217       .  S
C125        O131   1.263       .  A
C125        O133   1.259       .  A
C125        C721   1.470       .  S
O126        C134   1.263       .  A
O127        C134   1.259       .  A
C128        O135   1.266       .  A
C128        O129   1.259       .  A
C128        C952   1.487       .  S
C130        O132   1.267       .  A
C130        O136   1.257       .  A
C130        C817   1.488       .  S
C134        C733   1.490       .  S
In137       O139   2.211   1_565  S
In137       O140   2.276       .  S
In137       O148   2.276       .  S
In137       O142   2.202       .  S
In137       O144   2.241   1_565  S
In137       O145   2.261   1_565  S
In137       O146   2.196   1_565  S
In137       O149   2.230   1_565  S
C138        O144   1.264       .  A
C138        O146   1.261       .  A
C138        C724   1.468       .  S
O139        C147   1.257       .  A
O140        C147   1.266   1_565  A
C141        O148   1.266       .  A
C141        O142   1.258       .  A
C141        C697   1.490       .  S
C143        O145   1.266       .  A
C143        O149   1.259       .  A
C143        C709   1.491       .  S
C147        C784   1.478       .  S
In150       O152   2.243       .  S
In150       O153   2.287       .  S
In150       O161   2.279   1_655  S
In150       O155   2.217   1_655  S
In150       O157   2.230       .  S
In150       O158   2.232       .  S
In150       O159   2.243       .  S
In150       O162   2.269   1_655  S
C151        O157   1.257       .  A
C151        O159   1.261       .  A
C151        C745   1.478       .  S
O152        C160   1.258       .  A
O153        C160   1.261       .  A
C154        O161   1.265       .  A
C154        O155   1.258       .  A
C154        C700   1.488       .  S
C156        O158   1.259       .  A
C156        O162   1.266   1_655  A
C156        C772   1.491       .  S
C160        C685   1.486       .  S
C163        C649   1.586       .  S
C163        C661   1.587       .  S
C163        C673   1.582       .  S
C163        C964   1.592       .  S
C164        C628   1.607       .  S
C164        C637   1.598       .  S
C164        C676   1.600       .  S
C164        C688   1.573       .  S
C165        C601   1.595       .  S
C165        C613   1.581       .  S
C165        C664   1.589       .  S
C165        C913   1.588       .  S
C166        C577   1.576       .  S
C166        C589   1.581       .  S
C166        C640   1.598       .  S
C166        C760   1.592       .  S
C167        C553   1.600       .  S
C167        C565   1.608       .  S
C167        C616   1.586       .  S
C167        C712   1.585       .  S
C168        C541   1.582       .  S
C168        C568   1.592       .  S
C168        C592   1.579       .  S
C168        C736   1.590       .  S
In169       O171   2.261       .  S
In169       O172   2.290       .  S
In169       O180   2.296       .  S
In169       O174   2.247       .  S
In169       O176   2.241       .  S
In169       O177   2.267       .  S
In169       O178   2.216       .  S
In169       O181   2.239       .  S
C170        O176   1.261       .  A
C170        O178   1.260       .  A
C170        C520   1.472       .  S
O171        C179   1.256       .  A
O172        C179   1.262       .  A
C173        O180   1.267       .  A
C173        O174   1.259       .  A
C173        C529   1.502       .  S
C175        O177   1.266       .  A
C175        O181   1.260       .  A
C175        C505   1.487       .  S
C179        C580   1.501       .  S
In182       O184   2.275   1_545  S
In182       O185   2.224       .  S
In182       O193   2.302   1_545  S
In182       O187   2.232   1_545  S
In182       O189   2.229       .  S
In182       O190   2.302       .  S
In182       O191   2.213       .  S
In182       O194   2.257       .  S
C183        O189   1.260       .  A
C183        O191   1.258       .  A
C183        C496   1.468       .  S
O184        C192   1.268   1_565  A
O185        C192   1.258       .  A
C186        O193   1.269       .  A
C186        O187   1.257       .  A
C186        C532   1.501       .  S
C188        O190   1.262       .  A
C188        O194   1.256       .  A
C188        C604   1.505       .  S
C192        C481   1.486   1_545  S
In195       O197   2.225       .  S
In195       O198   2.298       .  S
In195       O206   2.293   1_655  S
In195       O200   2.225   1_655  S
In195       O202   2.240       .  S
In195       O203   2.260       .  S
In195       O204   2.217       .  S
In195       O207   2.218   1_655  S
C196        O202   1.259       .  A
C196        O204   1.258       .  A
C196        C493   1.464       .  S
O197        C205   1.256       .  A
O198        C205   1.264       .  A
C199        O206   1.266       .  A
C199        O200   1.256       .  A
C199        C469   1.493       .  S
C201        O203   1.266       .  A
C201        O207   1.261   1_655  A
C201        C457   1.479       .  S
C205        C652   1.497       .  S
In208       O210   2.235       .  S
In208       O211   2.266       .  S
In208       O219   2.284       .  S
In208       O213   2.236       .  S
In208       O215   2.256       .  S
In208       O216   2.299       .  S
In208       O217   2.218       .  S
In208       O220   2.245       .  S
C209        O215   1.261       .  A
C209        O217   1.258       .  A
C209        C448   1.471       .  S
O210        C218   1.263       .  A
O211        C218   1.267       .  A
C212        O219   1.264       .  A
C212        O213   1.259       .  A
C212        C472   1.493       .  S
C214        O216   1.264       .  A
C214        O220   1.256       .  A
C214        C544   1.503       .  S
C218        C433   1.492       .  S
In221       O223   2.271       .  S
In221       O224   2.231   1_565  S
In221       O232   2.262       .  S
In221       O226   2.213       .  S
In221       O228   2.229   1_565  S
In221       O229   2.269   1_565  S
In221       O230   2.234   1_565  S
In221       O233   2.233       .  S
C222        O228   1.259       .  A
C222        O230   1.258       .  A
C222        C445   1.475       .  S
O223        C231   1.264   1_565  A
O224        C231   1.255       .  A
C225        O232   1.266       .  A
C225        O226   1.260       .  A
C225        C421   1.480       .  S
C227        O229   1.263   1_565  A
C227        O233   1.258       .  A
C227        C412   1.481       .  S
C231        C556   1.492       .  S
In234       O236   2.229   1_655  S
In234       O237   2.298       .  S
In234       O245   2.263   1_655  S
In234       O239   2.220   1_655  S
In234       O241   2.246       .  S
In234       O242   2.246       .  S
In234       O243   2.222       .  S
In234       O246   2.287       .  S
C235        O241   1.261       .  A
C235        O243   1.257       .  A
C235        C517   1.476       .  S
O236        C244   1.257   1_455  A
O237        C244   1.265       .  A
C238        O245   1.266       .  A
C238        O239   1.261       .  A
C238        C424   1.482       .  S
C240        O242   1.255       .  A
C240        O246   1.262       .  A
C240        C625   1.498       .  S
C244        C397   1.490       .  S
In247       O249   2.280       .  S
In247       O250   2.225   1_655  S
In247       O258   2.276       .  S
In247       O252   2.215       .  S
In247       O254   2.237   1_655  S
In247       O255   2.291   1_655  S
In247       O256   2.227   1_655  S
In247       O259   2.247   1_655  S
C248        O254   1.259       .  A
C248        O256   1.260       .  A
C248        C373   1.467       .  S
O249        C257   1.266       .  A
O250        C257   1.261   1_455  A
C251        O258   1.267       .  A
C251        O252   1.257       .  A
C251        C388   1.486       .  S
C253        O255   1.262       .  A
C253        O259   1.254       .  A
C253        C973   1.495       .  S
C257        C400   1.495       .  S
In260       O262   2.245       .  S
In260       O263   2.273       .  S
In260       O271   2.257       .  S
In260       O265   2.234       .  S
In260       O267   2.233       .  S
In260       O268   2.293       .  S
In260       O269   2.205       .  S
In260       O272   2.219       .  S
C261        O267   1.265       .  A
C261        O269   1.261       .  A
C261        C364   1.475       .  S
O262        C270   1.259       .  A
O263        C270   1.264       .  A
C264        O271   1.263       .  A
C264        O265   1.260       .  A
C264        C385   1.491       .  S
C266        O268   1.266       .  A
C266        O272   1.255       .  A
C266        C508   1.479       .  S
C270       C1072   1.497       .  S
In273       O275   2.242       .  S
In273       O276   2.283       .  S
In273       O284   2.281   1_565  S
In273       O278   2.242   1_565  S
In273       O280   2.222       .  S
In273       O281   2.221       .  S
In273       O282   2.245       .  S
In273       O285   2.274   1_565  S
C274        O280   1.259       .  A
C274        O282   1.262       .  A
C274        C376   1.477       .  S
O275        C283   1.261       .  A
O276        C283   1.258       .  A
C277        O284   1.263       .  A
C277        O278   1.258       .  A
C277        C349   1.489       .  S
C279        O281   1.256       .  A
C279        O285   1.263   1_565  A
C279        C409   1.483       .  S
C283       C1141   1.495       .  S
In286       O288   2.213       .  S
In286       O289   2.294       .  S
In286       O297   2.276       .  S
In286       O291   2.212       .  S
In286       O293   2.248       .  S
In286       O294   2.283       .  S
In286       O295   2.201       .  S
In286       O298   2.245       .  S
C287        O293   1.265       .  A
C287        O295   1.261       .  A
C287        C337   1.478       .  S
O288        C296   1.258       .  A
O289        C296   1.271       .  A
C290        O297   1.268       .  A
C290        O291   1.262       .  A
C290        C352   1.491       .  S
C292        O294   1.267       .  A
C292        O298   1.260       .  A
C292       C1036   1.500       .  S
C296        C436   1.493       .  S
In299       O301   2.231       .  S
In299       O302   2.269   1_655  S
In299       O310   2.283       .  S
In299       O304   2.223       .  S
In299       O306   2.252   1_655  S
In299       O307   2.277       .  S
In299       O308   2.214   1_655  S
In299       O311   2.199       .  S
C300        O306   1.265       .  A
C300        O308   1.258       .  A
C300        C340   1.478       .  S
O301        C309   1.261   1_655  A
O302        C309   1.263       .  A
C303        O310   1.267       .  A
C303        O304   1.262       .  A
C303        C325   1.498       .  S
C305        O307   1.267       .  A
C305        O311   1.258       .  A
C305        C460   1.478       .  S
C309        C997   1.491       .  S
In312       O314   2.228       .  S
In312       O315   2.295   1_565  S
In312       O323   2.295   1_565  S
In312       O317   2.229   1_565  S
In312       O319   2.248       .  S
In312       O320   2.291       .  S
In312       O321   2.196       .  S
In312       O324   2.248       .  S
C313        O319   1.265       .  A
C313        O321   1.262       .  A
C313        C361   1.474       .  S
O314        C322   1.253       .  A
O315        C322   1.266   1_545  A
C316        O323   1.266       .  A
C316        O317   1.258       .  A
C316        C328   1.496       .  S
C318        O320   1.264       .  A
C318        O324   1.259       .  A
C318       C1108   1.505       .  S
C322        C484   1.481       .  S
C325        C326   1.404       .  A
C325        C330   1.418       .  A
C326        C327   1.397       .  A
C326        H331   1.085       .  S
C327        C328   1.415       .  A
C327        C334   1.443       .  S
C328        C329   1.409       .  A
C329        C330   1.414       .  A
C329        H332   1.084       .  S
C330        C333   1.443       .  S
C333        N335   1.157       .  T
C334        N336   1.156       .  T
C337        C338   1.403       .  A
C337        C342   1.413       .  A
C338        C339   1.392       .  A
C338        H343   1.085       .  S
C339        C340   1.414       .  A
C339        C346   1.446       .  S
C340        C341   1.405       .  A
C341        C342   1.401       .  A
C341        H344   1.085       .  S
C342        C345   1.443       .  S
C345        N347   1.157       .  T
C346        N348   1.157       .  T
C349        C350   1.404       .  A
C349        C354   1.415       .  A
C350        C351   1.399       .  A
C350        H355   1.085       .  S
C351        C352   1.414       .  A
C351        C358   1.445       .  S
C352        C353   1.407       .  A
C353        C354   1.410       .  A
C353        H356   1.084       .  S
C354        C357   1.443       .  S
C357        N359   1.157       .  T
C358        N360   1.157       .  T
C361        C362   1.402       .  A
C361        C366   1.412       .  A
C362        C363   1.390       .  A
C362        H367   1.085       .  S
C363        C364   1.414       .  A
C363        C370   1.445       .  S
C364        C365   1.405       .  A
C365        C366   1.399       .  A
C365        H368   1.085       .  S
C366        C369   1.443       .  S
C369        N371   1.157       .  T
C370        N372   1.157       .  T
C373        C374   1.400       .  A
C373        C378   1.407       .  A
C374        C375   1.395       .  A
C374        H379   1.084       .  S
C375        C376   1.415       .  A
C375        C382   1.445       .  S
C376        C377   1.406       .  A
C377        C378   1.398       .  A
C377        H380   1.084       .  S
C378        C381   1.445       .  S
C381        N383   1.157       .  T
C382        N384   1.157       .  T
C385        C386   1.405       .  A
C385        C390   1.416       .  A
C386        C387   1.399       .  A
C386        H391   1.085       .  S
C387        C388   1.415       .  A
C387        C394   1.446       .  S
C388        C389   1.404       .  A
C389        C390   1.406       .  A
C389        H392   1.085       .  S
C390        C393   1.443       .  S
C393        N395   1.157       .  T
C394        N396   1.158       .  T
C397        C398   1.408       .  A
C397        C402   1.412   1_655  A
C398        C399   1.412       .  A
C398        H403   1.084       .  S
C399        C400   1.417       .  A
C399        C406   1.444       .  S
C400        C401   1.405   1_655  A
C401        C402   1.399       .  A
C401        H404   1.085       .  S
C402        C405   1.444       .  S
C405        N407   1.157       .  T
C406        N408   1.158       .  T
C409        C410   1.404   1_565  A
C409        C414   1.414       .  A
C410        C411   1.404       .  A
C410        H415   1.085       .  S
C411        C412   1.414   1_545  A
C411        C418   1.444       .  S
C412        C413   1.402       .  A
C413        C414   1.399       .  A
C413        H416   1.085       .  S
C414        C417   1.445       .  S
C417        N419   1.157       .  T
C418        N420   1.157       .  T
C421        C422   1.403       .  A
C421        C426   1.413       .  A
C422        C423   1.397       .  A
C422        H427   1.085       .  S
C423        C424   1.412       .  A
C423        C430   1.445       .  S
C424        C425   1.406       .  A
C425        C426   1.405       .  A
C425        H428   1.085       .  S
C426        C429   1.444       .  S
C429        N431   1.157       .  T
C430        N432   1.157       .  T
C433        C434   1.404       .  A
C433        C438   1.417       .  A
C434        C435   1.400       .  A
C434        H439   1.085       .  S
C435        C436   1.418       .  A
C435        C442   1.446       .  S
C436        C437   1.405       .  A
C437        C438   1.410       .  A
C437        H440   1.084       .  S
C438        C441   1.443       .  S
C441        N443   1.157       .  T
C442        N444   1.158       .  T
C445        C446   1.405       .  A
C445        C450   1.414       .  A
C446        C447   1.397       .  A
C446        H451   1.085       .  S
C447        C448   1.410       .  A
C447        C454   1.443       .  S
C448        C449   1.402       .  A
C449        C450   1.395       .  A
C449        H452   1.085       .  S
C450        C453   1.445       .  S
C453        N455   1.157       .  T
C454        N456   1.157       .  T
C457        C458   1.401   1_655  A
C457        C462   1.415       .  A
C458        C459   1.395       .  A
C458        H463   1.085       .  S
C459        C460   1.414   1_455  A
C459        C466   1.446       .  S
C460        C461   1.404       .  A
C461        C462   1.407       .  A
C461        H464   1.084       .  S
C462        C465   1.444       .  S
C465        N467   1.157       .  T
C466        N468   1.157       .  T
C469        C470   1.408       .  A
C469        C474   1.415       .  A
C470        C471   1.410       .  A
C470        H475   1.084       .  S
C471        C472   1.416       .  A
C471        C478   1.443       .  S
C472        C473   1.404       .  A
C473        C474   1.400       .  A
C473        H476   1.085       .  S
C474        C477   1.445       .  S
C477        N479   1.157       .  T
C478        N480   1.157       .  T
C481        C482   1.403       .  A
C481        C486   1.417   1_565  A
C482        C483   1.402       .  A
C482        H487   1.085       .  S
C483        C484   1.415       .  A
C483        C490   1.445       .  S
C484        C485   1.400   1_565  A
C485        C486   1.404       .  A
C485        H488   1.085       .  S
C486        C489   1.444       .  S
C489        N491   1.157       .  T
C490        N492   1.157       .  T
C493        C494   1.401       .  A
C493        C498   1.410       .  A
C494        C495   1.394       .  A
C494        H499   1.085       .  S
C495        C496   1.412       .  A
C495        C502   1.446       .  S
C496        C497   1.403       .  A
C497        C498   1.395       .  A
C497        H500   1.085       .  S
C498        C501   1.445       .  S
C501        N503   1.157       .  T
C502        N504   1.158       .  T
C505        C506   1.403       .  A
C505        C510   1.417       .  A
C506        C507   1.400       .  A
C506        H511   1.085       .  S
C507        C508   1.412       .  A
C507        C514   1.445       .  S
C508        C509   1.402       .  A
C509        C510   1.407       .  A
C509        H512   1.085       .  S
C510        C513   1.444       .  S
C513        N515   1.157       .  T
C514        N516   1.157       .  T
C517        C518   1.405       .  A
C517        C522   1.413       .  A
C518        C519   1.398       .  A
C518        H523   1.085       .  S
C519        C520   1.413       .  A
C519        C526   1.445       .  S
C520        C521   1.402       .  A
C521        C522   1.394       .  A
C521        H524   1.085       .  S
C522        C525   1.445       .  S
C525        N527   1.157       .  T
C526        N528   1.157       .  T
C529        C530   1.407       .  A
C529        C534   1.416       .  A
C530        C531   1.404       .  A
C530        H535   1.085       .  S
C531        C532   1.419       .  A
C531        C538   1.446       .  S
C532        C533   1.408       .  A
C533        C534   1.413       .  A
C533        H536   1.084       .  S
C534        C537   1.442       .  S
C537        N539   1.157       .  T
C538        N540   1.158       .  T
C541        C542   1.414       .  A
C541        C546   1.431       .  A
C542        C543   1.401       .  A
C542        H547   1.083       .  S
C543        C544   1.416       .  A
C543        C550   1.444       .  S
C544        C545   1.406       .  A
C545        C546   1.413       .  A
C545        H548   1.085       .  S
C546        C549   1.443       .  S
C549        N551   1.157       .  T
C550        N552   1.157       .  T
C553        C554   1.419       .  A
C553        C558   1.445       .  A
C554        C555   1.403       .  A
C554        H559   1.074       .  S
C555        C556   1.413       .  A
C555        C562   1.446       .  S
C556        C557   1.395       .  A
C557        C558   1.403       .  A
C557        H560   1.085       .  S
C558        C561   1.448       .  S
C561        N563   1.158       .  T
C562        N564   1.158       .  T
C565        C566   1.419       .  A
C565        C570   1.430       .  A
C566        C567   1.412       .  A
C566        H571   1.076       .  S
C567        C568   1.430       .  A
C567        C574   1.444       .  S
C568        C569   1.419       .  A
C569        C570   1.419       .  A
C569        H572   1.084       .  S
C570        C573   1.444       .  S
C573        N575   1.157       .  T
C574        N576   1.158       .  T
C577        C578   1.419       .  A
C577        C582   1.428       .  A
C578        C579   1.405       .  A
C578        H583   1.079       .  S
C579        C580   1.411       .  A
C579        C586   1.443       .  S
C580        C581   1.408       .  A
C581        C582   1.409       .  A
C581        H584   1.085       .  S
C582        C585   1.444       .  S
C585        N587   1.157       .  T
C586        N588   1.157       .  T
C589        C590   1.416       .  A
C589        C594   1.425       .  A
C590        C591   1.410       .  A
C590        H595   1.080       .  S
C591        C592   1.429       .  A
C591        C598   1.438       .  S
C592        C593   1.414       .  A
C593        C594   1.397       .  A
C593        H596   1.083       .  S
C594        C597   1.443       .  S
C597        N599   1.157       .  T
C598        N600   1.156       .  T
C601        C602   1.424       .  A
C601        C606   1.426       .  A
C602        C603   1.411       .  A
C602        H607   1.082       .  S
C603        C604   1.413       .  A
C603        C610   1.444       .  S
C604        C605   1.405       .  A
C605        C606   1.407       .  A
C605        H608   1.085       .  S
C606        C609   1.440       .  S
C609        N611   1.157       .  T
C610        N612   1.157       .  T
C613        C614   1.420       .  A
C613        C618   1.422       .  A
C614        C615   1.422       .  A
C614        H619   1.081       .  S
C615        C616   1.430       .  A
C615        C622   1.442       .  S
C616        C617   1.410       .  A
C617        C618   1.391       .  A
C617        H620   1.066       .  S
C618        C621   1.447       .  S
C621        N623   1.158       .  T
C622        N624   1.157       .  T
C625        C626   1.399       .  A
C625        C630   1.412       .  A
C626        C627   1.408       .  A
C626        H631   1.085       .  S
C627        C628   1.443       .  A
C627        C634   1.448       .  S
C628        C629   1.422       .  A
C629        C630   1.404       .  A
C629        H632   1.074       .  S
C630        C633   1.447       .  S
C633        N635   1.158       .  T
C634        N636   1.158       .  T
C637        C638   1.415       .  A
C637        C642   1.433       .  A
C638        C639   1.415       .  A
C638        H643   1.085       .  S
C639        C640   1.431       .  A
C639        C646   1.443       .  S
C640        C641   1.415       .  A
C641        C642   1.410       .  A
C641        H644   1.077       .  S
C642        C645   1.445       .  S
C645        N647   1.158       .  T
C646        N648   1.157       .  T
C649        C650   1.420       .  A
C649        C654   1.431       .  A
C650        C651   1.412       .  A
C650        H655   1.080       .  S
C651        C652   1.412       .  A
C651        C658   1.443       .  S
C652        C653   1.400       .  A
C653        C654   1.398       .  A
C653        H656   1.085       .  S
C654        C657   1.443       .  S
C657        N659   1.157       .  T
C658        N660   1.157       .  T
C661        C662   1.412       .  A
C661        C666   1.426       .  A
C662        C663   1.414       .  A
C662        H667   1.080       .  S
C663        C664   1.434       .  A
C663        C670   1.443       .  S
C664        C665   1.416       .  A
C665        C666   1.411       .  A
C665        H668   1.084       .  S
C666        C669   1.444       .  S
C669        N671   1.157       .  T
C670        N672   1.158       .  T
C673        C674   1.418       .  A
C673        C678   1.420       .  A
C674        C675   1.420       .  A
C674        H679   1.082       .  S
C675        C676   1.434       .  A
C675        C682   1.443       .  S
C676        C677   1.414       .  A
C677        C678   1.397       .  A
C677        H680   1.064       .  S
C678        C681   1.447       .  S
C681        N683   1.158       .  T
C682        N684   1.158       .  T
C685        C686   1.400       .  A
C685        C690   1.405       .  A
C686        C687   1.400       .  A
C686        H691   1.085       .  S
C687        C688   1.430       .  A
C687        C694   1.445       .  S
C688        C689   1.426       .  A
C689        C690   1.410       .  A
C689        H692   1.079       .  S
C690        C693   1.444       .  S
C693        N695   1.157       .  T
C694        N696   1.157       .  T
C697        C698   1.409       .  A
C697        C702   1.417       .  A
C698        C699   1.409       .  A
C698        H703   1.084       .  S
C699        C700   1.414       .  A
C699        C706   1.443       .  S
C700        C701   1.403       .  A
C701        C702   1.394       .  A
C701        H704   1.085       .  S
C702        C705   1.446       .  S
C705        N707   1.158       .  T
C706        N708   1.157       .  T
C709        C710   1.395       .  A
C709        C714   1.411       .  A
C710        C711   1.406       .  A
C710        H715   1.086       .  S
C711        C712   1.439       .  A
C711        C718   1.437       .  S
C712        C713   1.421       .  A
C713        C714   1.400       .  A
C713        H716   1.085       .  S
C714        C717   1.444       .  S
C717        N719   1.157       .  T
C718        N720   1.156       .  T
C721        C722   1.401       .  A
C721        C726   1.413       .  A
C722        C723   1.388       .  A
C722        H727   1.085       .  S
C723        C724   1.411       .  A
C723        C730   1.446       .  S
C724        C725   1.404       .  A
C725        C726   1.401       .  A
C725        H728   1.085       .  S
C726        C729   1.444       .  S
C729        N731   1.157       .  T
C730        N732   1.157       .  T
C733        C734   1.404       .  A
C733        C738   1.403       .  A
C734        C735   1.412       .  A
C734        H739   1.085       .  S
C735        C736   1.431       .  A
C735        C742   1.442       .  S
C736        C737   1.426       .  A
C737        C738   1.399       .  A
C737        H740   1.080       .  S
C738        C741   1.445       .  S
C741        N743   1.157       .  T
C742        N744   1.157       .  T
C745        C746   1.404       .  A
C745        C750   1.415       .  A
C746        C747   1.397       .  A
C746        H751   1.085       .  S
C747        C748   1.413       .  A
C747        C754   1.445       .  S
C748        C749   1.402       .  A
C749        C750   1.397       .  A
C749        H752   1.085       .  S
C750        C753   1.445       .  S
C753        N755   1.157       .  T
C754        N756   1.157       .  T
C757        C758   1.395       .  A
C757        C762   1.411       .  A
C758        C759   1.401       .  A
C758        H763   1.086       .  S
C759        C760   1.441       .  A
C759        C766   1.442       .  S
C760        C761   1.424       .  A
C761        C762   1.411       .  A
C761        H764   1.084       .  S
C762        C765   1.443       .  S
C765        N767   1.157       .  T
C766        N768   1.158       .  T
C769        C770   1.403       .  A
C769        C774   1.415   1_655  A
C770        C771   1.402   1_554  A
C770        H775   1.085       .  S
C771        C772   1.418       .  A
C771        C778   1.444       .  S
C772        C773   1.405   1_655  A
C773        C774   1.403   1_556  A
C773        H776   1.085       .  S
C774        C777   1.445       .  S
C777        N779   1.157       .  T
C778        N780   1.157       .  T
C781        C782   1.406   1_545  A
C781        C786   1.412       .  A
C782        C783   1.404   1_554  A
C782        H787   1.085       .  S
C783        C784   1.411   1_565  A
C783        C790   1.443       .  S
C784        C785   1.403       .  A
C785        C786   1.396   1_556  A
C785        H788   1.085       .  S
C786        C789   1.445       .  S
C789        N791   1.157       .  T
C790        N792   1.157       .  T
C793        C794   1.402       .  A
C793        C798   1.411       .  A
C794        C795   1.394       .  A
C794        H799   1.085       .  S
C795        C796   1.411       .  A
C795        C802   1.445       .  S
C796        C797   1.404       .  A
C797        C798   1.396       .  A
C797        H800   1.085       .  S
C798        C801   1.445       .  S
C801        N803   1.158       .  T
C802        N804   1.157       .  T
C805        C806   1.406       .  A
C805        C810   1.414       .  A
C806        C807   1.402       .  A
C806        H811   1.085       .  S
C807        C808   1.413       .  A
C807        C814   1.444       .  S
C808        C809   1.406       .  A
C809        C810   1.407       .  A
C809        H812   1.085       .  S
C810        C813   1.444       .  S
C813        N815   1.157       .  T
C814        N816   1.157       .  T
C817        C818   1.406       .  A
C817        C822   1.414       .  A
C818        C819   1.412   1_556  A
C818        H823   1.084       .  S
C819        C820   1.418       .  A
C819        C826   1.443       .  S
C820        C821   1.403       .  A
C821        C822   1.397   1_554  A
C821        H824   1.085       .  S
C822        C825   1.446       .  S
C825        N827   1.157       .  T
C826        N828   1.157       .  T
C829        C830   1.406       .  A
C829        C834   1.413       .  A
C830        C831   1.408       .  A
C830        H835   1.085       .  S
C831        C832   1.414       .  A
C831        C838   1.444       .  S
C832        C833   1.402       .  A
C833        C834   1.400       .  A
C833        H836   1.085       .  S
C834        C837   1.444       .  S
C837        N839   1.157       .  T
C838        N840   1.157       .  T
C841        C842   1.403       .  A
C841        C846   1.410       .  A
C842        C843   1.396       .  A
C842        H847   1.085       .  S
C843        C844   1.410       .  A
C843        C850   1.444       .  S
C844        C845   1.401       .  A
C845        C846   1.392       .  A
C845        H848   1.085       .  S
C846        C849   1.446       .  S
C849        N851   1.157       .  T
C850        N852   1.157       .  T
C853        C854   1.404       .  A
C853        C858   1.410       .  A
C854        C855   1.407   1_554  A
C854        H859   1.085       .  S
C855        C856   1.416       .  A
C855        C862   1.443       .  S
C856        C857   1.409       .  A
C857        C858   1.401   1_556  A
C857        H860   1.084       .  S
C858        C861   1.446       .  S
C861        N863   1.157       .  T
C862        N864   1.157       .  T
C865        C866   1.406       .  A
C865        C870   1.416       .  A
C866        C867   1.401       .  A
C866        H871   1.085       .  S
C867        C868   1.411       .  A
C867        C874   1.444       .  S
C868        C869   1.400       .  A
C869        C870   1.395       .  A
C869        H872   1.085       .  S
C870        C873   1.445       .  S
C873        N875   1.158       .  T
C874        N876   1.157       .  T
C877        C878   1.406       .  A
C877        C882   1.415       .  A
C878        C879   1.398       .  A
C878        H883   1.085       .  S
C879        C880   1.416       .  A
C879        C886   1.446       .  S
C880        C881   1.405       .  A
C881        C882   1.405       .  A
C881        H884   1.085       .  S
C882        C885   1.443       .  S
C885        N887   1.157       .  T
C886        N888   1.158       .  T
C889        C890   1.406       .  A
C889        C894   1.417       .  A
C890        C891   1.403       .  A
C890        H895   1.085       .  S
C891        C892   1.416       .  A
C891        C898   1.445       .  S
C892        C893   1.406       .  A
C893        C894   1.409       .  A
C893        H896   1.085       .  S
C894        C897   1.443       .  S
C897        N899   1.157       .  T
C898        N900   1.157       .  T
C901        C902   1.406   1_565  A
C901        C906   1.415       .  A
C902        C903   1.395   1_556  A
C902        H907   1.085       .  S
C903        C904   1.412   1_545  A
C903        C910   1.446       .  S
C904        C905   1.408       .  A
C905        C906   1.412   1_554  A
C905        H908   1.084       .  S
C906        C909   1.442       .  S
C909        N911   1.157       .  T
C910        N912   1.157       .  T
C913        C914   1.421       .  A
C913        C918   1.434       .  A
C914        C915   1.402       .  A
C914        H919   1.076       .  S
C915        C916   1.405       .  A
C915        C922   1.444   1_545  S
C916        C917   1.404       .  A
C917        C918   1.414       .  A
C917        H920   1.085       .  S
C918        C921   1.445       .  S
C921        N923   1.158       .  T
C922        N924   1.157       .  T
C925        C926   1.409   1_455  A
C925        C930   1.413       .  A
C926        C927   1.413   1_556  A
C926        H931   1.084       .  S
C927        C928   1.412       .  A
C927        C934   1.442       .  S
C928        C929   1.404   1_655  A
C929        C930   1.395   1_554  A
C929        H932   1.086       .  S
C930        C933   1.446       .  S
C933        N935   1.157       .  T
C934        N936   1.157       .  T
C937        C938   1.402       .  A
C937        C942   1.414       .  A
C938        C939   1.391       .  A
C938        H943   1.085       .  S
C939        C940   1.415       .  A
C939        C946   1.446       .  S
C940        C941   1.405       .  A
C941        C942   1.403       .  A
C941        H944   1.084       .  S
C942        C945   1.444       .  S
C945        N947   1.157       .  T
C946        N948   1.157       .  T
C949        C950   1.407       .  A
C949        C954   1.415       .  A
C950        C951   1.406       .  A
C950        H955   1.084       .  S
C951        C952   1.413       .  A
C951        C958   1.444       .  S
C952        C953   1.405       .  A
C953        C954   1.402       .  A
C953        H956   1.085       .  S
C954        C957   1.445       .  S
C957        N959   1.157       .  T
C958        N960   1.157       .  T
C961        C962   1.406       .  A
C961        C966   1.407       .  A
C962        C963   1.414       .  A
C962        H967   1.085       .  S
C963        C964   1.431       .  A
C963        C970   1.443       .  S
C964        C965   1.423       .  A
C965        C966   1.399       .  A
C965        H968   1.078       .  S
C966        C969   1.446       .  S
C969        N971   1.157   1_655  T
C970        N972   1.157       .  T
C973        C974   1.402       .  A
C973        C978   1.415       .  A
C974        C975   1.410       .  A
C974        H979   1.085       .  S
C975        C976   1.432       .  A
C975        C982   1.438       .  S
C976        C977   1.419       .  A
C977        C978   1.400       .  A
C977        H980   1.085       .  S
C978        C981   1.444       .  S
C981        N983   1.157       .  T
C982        N984   1.156       .  T
C985        C986   1.392       .  A
C985        C990   1.410       .  A
C986        C987   1.399       .  A
C986        H991   1.086       .  S
C987        C988   1.451       .  A
C987        C994   1.448       .  S
C988        C989   1.421       .  A
C989        C990   1.410       .  A
C989        H992   1.077       .  S
C990        C993   1.444       .  S
C993        N995   1.157       .  T
C994        N996   1.158       .  T
C997        C998   1.405       .  A
C997       C1002   1.405       .  A
C998        C999   1.411       .  A
C998       H1003   1.084       .  S
C999       C1000   1.430       .  A
C999       C1006   1.445       .  S
C1000      C1001   1.423       .  A
C1001      C1002   1.398       .  A
C1001      H1004   1.077       .  S
C1002      C1005   1.446   1_455  S
C1005      N1007   1.157       .  T
C1006      N1008   1.158       .  T
C1009      C1010   1.402       .  A
C1009      C1014   1.411       .  A
C1010      C1011   1.400       .  A
C1010      H1015   1.085       .  S
C1011      C1012   1.429       .  A
C1011      C1018   1.442       .  S
C1012      C1013   1.423       .  A
C1013      C1014   1.412       .  A
C1013      H1016   1.081       .  S
C1014      C1017   1.443       .  S
C1017      N1019   1.157       .  T
C1018      N1020   1.157       .  T
C1021      C1022   1.420       .  A
C1021      C1026   1.430       .  A
C1022      C1023   1.423       .  A
C1022      H1027   1.080       .  S
C1023      C1024   1.429       .  A
C1023      C1030   1.440       .  S
C1024      C1025   1.411       .  A
C1025      C1026   1.396       .  A
C1025      H1028   1.080       .  S
C1026      C1029   1.446       .  S
C1029      N1031   1.158       .  T
C1030      N1032   1.157       .  T
C1033      C1034   1.424       .  A
C1033      C1038   1.434       .  A
C1034      C1035   1.406       .  A
C1034      H1039   1.077       .  S
C1035      C1036   1.409       .  A
C1035      C1042   1.445       .  S
C1036      C1037   1.402       .  A
C1037      C1038   1.411       .  A
C1037      H1040   1.085       .  S
C1038      C1041   1.442       .  S
C1041      N1043   1.157       .  T
C1042      N1044   1.157       .  T
C1045      C1046   1.422       .  A
C1045      C1050   1.427       .  A
C1046      C1047   1.408       .  A
C1046      H1051   1.080       .  S
C1047      C1048   1.410       .  A
C1047      C1054   1.444       .  S
C1048      C1049   1.406       .  A
C1049      C1050   1.407       .  A
C1049      H1052   1.085       .  S
C1050      C1053   1.443       .  S
C1053      N1055   1.157       .  T
C1054      N1056   1.157       .  T
C1057      C1058   1.418       .  A
C1057      C1062   1.438       .  A
C1058      C1059   1.417       .  A
C1058      H1063   1.085       .  S
C1059      C1060   1.427       .  A
C1059      C1066   1.443       .  S
C1060      C1061   1.414       .  A
C1061      C1062   1.414       .  A
C1061      H1064   1.080       .  S
C1062      C1065   1.443       .  S
C1065      N1067   1.158       .  T
C1066      N1068   1.157       .  T
C1069      C1070   1.419       .  A
C1069      C1074   1.429       .  A
C1070      C1071   1.406       .  A
C1070      H1075   1.081       .  S
C1071      C1072   1.412       .  A
C1071      C1078   1.443       .  S
C1072      C1073   1.406       .  A
C1073      C1074   1.402       .  A
C1073      H1076   1.085       .  S
C1074      C1077   1.447       .  S
C1077      N1079   1.157       .  T
C1078      N1080   1.157       .  T
C1081      C1082   1.398       .  A
C1081      C1086   1.400       .  A
C1082      C1083   1.408       .  A
C1082      H1087   1.087       .  S
C1083      C1084   1.439       .  A
C1083      C1090   1.435       .  S
C1084      C1085   1.437       .  A
C1085      C1086   1.403       .  A
C1085      H1088   1.083       .  S
C1086      C1089   1.445       .  S
C1089      N1091   1.157       .  T
C1090      N1092   1.157       .  T
C1093      C1094   1.414       .  A
C1093      C1098   1.423       .  A
C1094      C1095   1.416       .  A
C1094      H1099   1.081       .  S
C1095      C1096   1.432       .  A
C1095      C1102   1.440       .  S
C1096      C1097   1.416       .  A
C1097      C1098   1.398       .  A
C1097      H1100   1.063       .  S
C1098      C1101   1.448       .  S
C1101      N1103   1.158       .  T
C1102      N1104   1.157       .  T
C1105      C1106   1.434       .  A
C1105      C1110   1.439       .  A
C1106      C1107   1.410       .  A
C1106      H1111   1.081       .  S
C1107      C1108   1.408       .  A
C1107      C1114   1.444       .  S
C1108      C1109   1.400       .  A
C1109      C1110   1.408       .  A
C1109      H1112   1.086       .  S
C1110      C1113   1.439       .  S
C1113      N1115   1.158       .  T
C1114      N1116   1.157       .  T
C1117      C1118   1.409       .  A
C1117      C1122   1.439       .  A
C1118      C1119   1.402       .  A
C1118      H1123   1.076       .  S
C1119      C1120   1.410       .  A
C1119      C1126   1.445       .  S
C1120      C1121   1.399       .  A
C1121      C1122   1.412       .  A
C1121      H1124   1.085       .  S
C1122      C1125   1.441       .  S
C1125      N1127   1.157       .  T
C1126      N1128   1.157       .  T
C1129      C1130   1.409       .  A
C1129      C1134   1.427       .  A
C1130      C1131   1.408       .  A
C1130      H1135   1.081       .  S
C1131      C1132   1.442       .  A
C1131      C1138   1.445       .  S
C1132      C1133   1.416       .  A
C1133      C1134   1.421       .  A
C1133      H1136   1.085       .  S
C1134      C1137   1.443       .  S
C1137      N1139   1.157       .  T
C1138      N1140   1.158       .  T
C1141      C1142   1.393       .  A
C1141      C1146   1.411       .  A
C1142      C1143   1.397       .  A
C1142      H1147   1.086       .  S
C1143      C1144   1.445       .  A
C1143      C1150   1.444       .  S
C1144      C1145   1.421       .  A
C1145      C1146   1.412       .  A
C1145      H1148   1.085       .  S
C1146      C1149   1.442       .  S
C1149      N1151   1.157       .  T
C1150      N1152   1.158       .  T
C1153      C1154   1.405       .  A
C1153      C1158   1.409       .  A
C1154      C1155   1.402       .  A
C1154      H1159   1.085       .  S
C1155      C1156   1.429       .  A
C1155      C1162   1.446       .  S
C1156      C1157   1.417       .  A
C1157      C1158   1.403       .  A
C1157      H1160   1.073       .  S
C1158      C1161   1.444       .  S
C1161      N1163   1.157       .  T
C1162      N1164   1.157       .  T
C1165      C1166   1.410       .  A
C1165      C1170   1.430       .  A
C1166      C1167   1.413       .  A
C1166      H1171   1.075       .  S
C1167      C1168   1.443       .  A
C1167      C1174   1.446       .  S
C1168      C1169   1.419       .  A
C1169      C1170   1.417       .  A
C1169      H1172   1.064       .  S
C1170      C1173   1.446       .  S
C1173      N1175   1.157       .  T
C1174      N1176   1.158       .  T
C1177      C1178   1.416       .  A
C1177      C1182   1.428       .  A
C1178      C1179   1.410       .  A
C1178      H1183   1.078       .  S
C1179      C1180   1.427       .  A
C1179      C1186   1.436       .  S
C1180      C1181   1.418       .  A
C1181      C1182   1.403       .  A
C1181      H1184   1.086       .  S
C1182      C1185   1.442       .  S
C1185      N1187   1.157       .  T
C1186      N1188   1.155       .  T
