geometry optimzed in LAMMPS
_audit_creation_date              2020-11-30 
_audit_creation_method            'lammps2cif' 
_symmetry_space_group_name_H-M    'P1' 
_symmetry_Int_Tables_number       1 
_symmetry_cell_setting            triclinic 
loop_ 
_symmetry_equiv_pos_as_xyz 
  x,y,z 
_cell_length_a                    38.56153186 
_cell_length_b                    39.061418126656555 
_cell_length_c                    37.40030911152861 
_cell_angle_alpha                 90.32705985215794 
_cell_angle_beta                  90.24517684530457 
_cell_angle_gamma                 90.16106915608604 
loop_ 
_atom_site_label 
_atom_site_type_symbol 
_atom_site_fract_x 
_atom_site_fract_y 
_atom_site_fract_z 
_atom_site_charge 
C1          C  0.33740798  0.33363765  0.46504003     0.03200
C2          C  0.36344311  0.35860122  0.46710937    -0.12900
C3          C  0.37428358  0.37125213  0.00057286     0.00700
C4          C  0.35929639  0.35838669  0.03192993    -0.11500
C5          C  0.33323967  0.33316225  0.02996713     0.03200
C6          C  0.32271175  0.32087438  0.49645173    -0.10900
H7          H  0.37505793  0.36830313  0.44283434     0.08800
H8          H  0.36769341  0.36827160  0.05768438     0.06300
H9          H  0.30330715  0.30080395  0.49460383     0.06200
C10         C  0.09632610  0.33519770  0.46730600     0.03200
C11         C  0.10623564  0.32023772  0.49984103    -0.12900
C12         C  0.09185227  0.33110100  0.03210409     0.00700
C13         C  0.06584786  0.35614949  0.03181677    -0.11500
C14         C  0.05555422  0.37132921  0.99960248     0.03200
C15         C  0.07135261  0.36132191  0.46755465    -0.10900
H16         H  0.12577793  0.30034906  0.49988273     0.08800
H17         H  0.05351225  0.36386180  0.05654618     0.06300
H18         H  0.06390440  0.37366912  0.44283189     0.06200
C19         C  0.33564236  0.08698140  0.46612550     0.03200
C20         C  0.32239456  0.09874638  0.49876408    -0.12900
C21         C  0.33658692  0.08757875  0.03144786     0.00700
C22         C  0.36296812  0.06287267  0.03096441    -0.11500
C23         C  0.37481961  0.04946411  0.99831751     0.03200
C24         C  0.36116185  0.06153038  0.46614546    -0.10900
H25         H  0.30157230  0.11733183  0.49869908     0.08800
H26         H  0.37459609  0.05427865  0.05573969     0.06300
H27         H  0.37136015  0.05190354  0.44108404     0.06200
N28         N  0.46504734  0.40779808  0.00391912    -0.36500
N29         N  0.01900333  0.46046332  0.99773320    -0.57100
N30         N  0.46522853  0.01311465  0.99401748    -0.36500
N31         N  0.41135549  0.46029387  0.00126469    -0.57100
C32         C  0.49323874  0.38753573  0.99994931     0.27100
C33         C  0.43661795  0.38746484  0.00114925     0.27100
C34         C  0.49362002  0.03347025  0.99700601     0.27100
C35         C  0.43701089  0.03339797  0.99763244     0.27100
C36         C  0.03985745  0.43279702  0.99965305     0.35700
C37         C  0.03996170  0.48822027  0.99721467     0.35700
C38         C  0.39036869  0.43259440  0.00273322     0.35700
C39         C  0.39050585  0.48795562  0.99954965     0.35700
C40         C  0.48258020  0.35380176  0.99564753    -0.21800
C41         C  0.44698251  0.35375213  0.99642601    -0.21800
C42         C  0.48321732  0.06722207  0.00128739    -0.21800
C43         C  0.44761907  0.06718172  0.00161908    -0.21800
C44         C  0.07431426  0.44304103  0.00027785    -0.22900
C45         C  0.07438589  0.47809046  0.99868619    -0.22900
C46         C  0.35593490  0.44276480  0.00220964    -0.22900
C47         C  0.35602191  0.47778186  0.00019057    -0.22900
C48         C  0.02857453  0.39830261  0.99988978    -0.18200
C49         C  0.40148142  0.39810841  0.00250268    -0.18200
C50         C  0.40186050  0.02262908  0.99794038    -0.18200
C51         C  0.02862384  0.02300625  0.99664276    -0.18200
H52         H  0.49875103  0.33146251  0.99195056     0.14700
H53         H  0.43061532  0.33134824  0.99347902     0.14700
H54         H  0.99937888  0.08971455  0.00551698     0.14700
H55         H  0.43142947  0.08953137  0.00513140     0.14700
H56         H  0.09708813  0.42696501  0.00174630     0.13000
H57         H  0.09723277  0.49425632  0.99898273     0.13000
H58         H  0.33306720  0.42663922  0.00268331     0.13000
H59         H  0.33323662  0.49388275  0.99927078     0.13000
H60         H  0.46530389  0.43351336  0.01067150     0.26200
H61         H  0.46492539  0.48720760  0.98779704     0.26200
C62         C  0.09483962  0.08859706  0.46716334     0.03200
C63         C  0.10776031  0.09951500  0.50049269    -0.12900
C64         C  0.09517830  0.08579962  0.03258376     0.00700
C65         C  0.06861944  0.06130887  0.03108270    -0.11500
C66         C  0.05571950  0.04998181  0.99796272     0.03200
C67         C  0.06886291  0.06337015  0.46591943    -0.10900
H68         H  0.12802878  0.11878916  0.50166280     0.08800
H69         H  0.05841721  0.05060639  0.05557253     0.06300
H70         H  0.05966154  0.05362890  0.44041126     0.06200
O71         O  0.28653407  0.27900444  0.30672178    -0.75200
O72         O  0.25676452  0.24870499  0.34879934    -0.54100
C73         C  0.27928210  0.27113398  0.33923854     0.78500
O74         O  0.14591012  0.27790110  0.18896538    -0.59800
O75         O  0.17391328  0.24407966  0.14847554    -0.52800
C76         C  0.15196663  0.26740215  0.15680483     0.70500
O77         O  0.15029986  0.28110465  0.31079272    -0.74400
O78         O  0.18276419  0.25117993  0.35102019    -0.54900
C79         C  0.16023072  0.27404823  0.34290001     0.76500
O80         O  0.28340886  0.27577295  0.18565022    -0.59500
O81         O  0.24856244  0.24686181  0.14627574    -0.52600
C82         C  0.27262956  0.26856945  0.15379561     0.73100
Zr83       Zr  0.26884489  0.25958554  0.24700453     2.54700
O84         O  0.27361872  0.32168852  0.24562600    -0.80100
O85         O  0.33156827  0.25244079  0.24505418    -0.93500
Zr86       Zr  0.16496166  0.26289037  0.24975136     2.64700
O87         O  0.16874571  0.32512645  0.24986892    -0.98400
O88         O  0.10190982  0.26522691  0.25065910    -0.80500
O89         O  0.21793267  0.26264146  0.28244971    -0.83900
O90         O  0.21589791  0.26160983  0.21441358    -2.18600
O91         O  0.28259140  0.14097723  0.18799808    -0.67300
O92         O  0.25197537  0.17302761  0.14806874    -0.51800
C93         C  0.27486810  0.15045463  0.15598852     0.71500
O94         O  0.14769680  0.14319504  0.31199664    -0.60200
O95         O  0.18069223  0.17404088  0.35158427    -0.52100
C96         C  0.15775293  0.15120254  0.34385493     0.73300
O97         O  0.14310556  0.14286007  0.19107800    -0.71600
O98         O  0.17573119  0.17076726  0.14950750    -0.50200
C99         C  0.15210139  0.14938177  0.15866203     0.74700
O100        O  0.28123820  0.13919208  0.30906479    -0.66900
O101        O  0.25491439  0.17412808  0.34973883    -0.54100
C102        C  0.27508612  0.14928145  0.34126215     0.73100
Zr103      Zr  0.26537108  0.15743803  0.24869832     2.77500
O104        O  0.26196419  0.09517097  0.24798191    -0.97600
O105        O  0.32849324  0.15728647  0.25024128    -0.78500
Zr106      Zr  0.16180211  0.16070089  0.25108276     2.70100
O107        O  0.15895779  0.09842764  0.25090437    -0.79700
O108        O  0.09906163  0.16615351  0.25457335    -0.98800
Zr109      Zr  0.21715871  0.21152548  0.31661335     2.21500
Zr110      Zr  0.21346044  0.20909875  0.18200932     2.11100
O111        O  0.21272415  0.15762984  0.21570439    -2.47500
O112        O  0.21448162  0.15914510  0.28412796    -0.79500
O113        O  0.26701073  0.20788680  0.21348489    -0.71700
O114        O  0.16351126  0.21237767  0.28485025    -2.32700
O115        O  0.26884734  0.20917662  0.28219490    -2.28900
O116        O  0.16162560  0.21118687  0.21610170    -0.73500
H117        H  0.21585037  0.28099355  0.19850879     0.78500
H118        H  0.14410736  0.21306888  0.30110869     0.79600
H119        H  0.21188951  0.13773261  0.20026341     0.81900
H120        H  0.28912537  0.20882356  0.29742969     0.79500
H121        H  0.09478728  0.24431504  0.26355436     0.42500
H122        H  0.09296496  0.18224683  0.23519932     0.41500
H123        H  0.17962128  0.09124681  0.26473709     0.41100
H124        H  0.24885254  0.08935840  0.22594574     0.39100
H125        H  0.33538322  0.17440913  0.23216954     0.42200
H126        H  0.33766007  0.24103710  0.26779480     0.37000
H127        H  0.25320861  0.32918807  0.23159128     0.43100
H128        H  0.18090201  0.33088161  0.22742294     0.39500
H129        H  0.28596450  0.08760049  0.24304083     0.44400
H130        H  0.34096154  0.27594129  0.24768346     0.43200
H131        H  0.14459101  0.33282154  0.24592291     0.43300
H132        H  0.09005386  0.14372242  0.24621411     0.43700
C133        C  0.08688123  0.11416367  0.09131151    -0.26200
C134        C  0.10927936  0.09757555  0.06735886    -0.14300
C135        C  0.14503227  0.09523810  0.07575432     0.36300
C136        C  0.15768437  0.11187864  0.10631858    -0.25700
C137        C  0.13563219  0.12997021  0.12933788    -0.14900
C138        C  0.09956054  0.13073395  0.12208766     0.37400
N139        N  0.07530328  0.14915480  0.14404512    -0.89200
H140        H  0.05946141  0.11581634  0.08504909     0.18500
H141        H  0.18526502  0.11086980  0.11205684     0.18500
N142        N  0.16925423  0.07650996  0.05399936    -0.88200
H143        H  0.06415347  0.16824864  0.12827949     0.35900
H144        H  0.08749720  0.16177815  0.16527196     0.41000
H145        H  0.15682208  0.06325425  0.03331343     0.40600
H146        H  0.18043326  0.05767137  0.07007913     0.35500
C147        C  0.14567723  0.09926538  0.42818033    -0.26200
C148        C  0.10987977  0.10272789  0.43390495    -0.14300
C149        C  0.08969918  0.12110975  0.40885165     0.36300
C150        C  0.10570054  0.13580552  0.37907786    -0.25700
C151        C  0.14158990  0.13312108  0.37399771    -0.14900
C152        C  0.16178837  0.11429362  0.39847264     0.37400
N153        N  0.19833494  0.10975357  0.39256668    -0.89200
H154        H  0.16114319  0.08502478  0.44721999     0.18500
H155        H  0.09017641  0.15039195  0.36037268     0.18500
N156        N  0.05332826  0.12672040  0.41380714    -0.88200
H157        H  0.20897147  0.09362361  0.41192204     0.35900
H158        H  0.21041833  0.13351357  0.39607065     0.41000
H159        H  0.04960542  0.13810153  0.43886086     0.40600
H160        H  0.04045889  0.10318554  0.41316912     0.35500
C161        C  0.31950787  0.13878503  0.06684664    -0.26200
C162        C  0.32391849  0.10311162  0.06534858    -0.14300
C163        C  0.31418237  0.08310373  0.09506410     0.36300
C164        C  0.29964891  0.09923049  0.12526282    -0.25700
C165        C  0.29365728  0.13466976  0.12576750    -0.14900
C166        C  0.30422782  0.15472276  0.09647017     0.37400
N167        N  0.29923970  0.19122393  0.09683985    -0.89200
H168        H  0.32759047  0.15431447  0.04443462     0.18500
H169        H  0.29144703  0.08390903  0.14777885     0.18500
N170        N  0.31779439  0.04649373  0.09397646    -0.88200
H171        H  0.30799899  0.20214913  0.07305943     0.35900
H172        H  0.31462351  0.20142125  0.11739679     0.41000
H173        H  0.30134648  0.03714514  0.07385561     0.40600
H174        H  0.30938977  0.03564270  0.11792418     0.35500
C175        C  0.31079679  0.08162118  0.40437849    -0.26200
C176        C  0.32316613  0.10247585  0.43241278    -0.14300
C177        C  0.32162342  0.13832601  0.42899103     0.36300
C178        C  0.30595961  0.15263917  0.39893834    -0.25700
C179        C  0.29300752  0.13208986  0.37111648    -0.14900
C180        C  0.29576127  0.09610863  0.37355316     0.37400
N181        N  0.28135050  0.07446036  0.34603315    -0.89200
H182        H  0.31184586  0.05404069  0.40707905     0.18500
H183        H  0.30357872  0.18013387  0.39755238     0.18500
N184        N  0.33608282  0.16036014  0.45601142    -0.88200
H185        H  0.28328019  0.04871829  0.35327080     0.35900
H186        H  0.29661935  0.07734162  0.32322895     0.41000
H187        H  0.35486862  0.17584794  0.44408020     0.40600
H188        H  0.31635678  0.17624778  0.46555527     0.35500
C189        C  0.10723694  0.27944440  0.06732687    -0.26200
C190        C  0.10380825  0.31518808  0.06600795    -0.14300
C191        C  0.11379529  0.33508235  0.09606683     0.36300
C192        C  0.12771385  0.31878092  0.12638480    -0.25700
C193        C  0.13278332  0.28322278  0.12680380    -0.14900
C194        C  0.12169245  0.26326240  0.09724756     0.37400
N195        N  0.12537409  0.22661773  0.09764772    -0.89200
H196        H  0.09901024  0.26407641  0.04459560     0.18500
H197        H  0.13631276  0.33405857  0.14903271     0.18500
N198        N  0.11114624  0.37177561  0.09518501    -0.88200
H199        H  0.11611585  0.21575275  0.07382497     0.35900
H200        H  0.10970067  0.21721295  0.11812517     0.41000
H201        H  0.12806405  0.38062268  0.07548988     0.40600
H202        H  0.11953974  0.38252352  0.11939216     0.35500
C203        C  0.14857926  0.31903349  0.43216602    -0.26200
C204        C  0.11240406  0.32299650  0.43344426    -0.14300
C205        C  0.09217558  0.31309716  0.40346852     0.36300
C206        C  0.10854035  0.29874438  0.37332401    -0.25700
C207        C  0.14448024  0.29320032  0.37296082    -0.14900
C208        C  0.16481396  0.30419617  0.40236451     0.37400
N209        N  0.20187834  0.30014550  0.40187109    -0.89200
H210        H  0.16422455  0.32715102  0.45483049     0.18500
H211        H  0.09298766  0.29027265  0.35073351     0.18500
N212        N  0.05505377  0.31632156  0.40425889    -0.88200
H213        H  0.21300808  0.30938874  0.42558835     0.35900
H214        H  0.21151067  0.31538218  0.38125994     0.41000
H215        H  0.04575785  0.29999590  0.42411993     0.40600
H216        H  0.04410096  0.30792843  0.38012513     0.35500
C217        C  0.33863249  0.30828415  0.09113485    -0.26200
C218        C  0.31723203  0.31906600  0.06288453    -0.14300
C219        C  0.28090821  0.31492913  0.06571765     0.36300
C220        C  0.26706033  0.29823346  0.09560631    -0.25700
C221        C  0.28854132  0.28676082  0.12342303    -0.14900
C222        C  0.32465167  0.29226715  0.12145447     0.37400
N223        N  0.34705957  0.28069813  0.14970395    -0.89200
H224        H  0.36647303  0.31140705  0.08903337     0.18500
H225        H  0.23924991  0.29455898  0.09747494     0.18500
N226        N  0.25821876  0.32801443  0.03842818    -0.88200
H227        H  0.37288750  0.28684569  0.14419179     0.35900
H228        H  0.34554280  0.25398024  0.15036982     0.41000
H229        H  0.26095877  0.35465242  0.03827722     0.40600
H230        H  0.23229543  0.32289588  0.04457696     0.35900
C231        C  0.33468243  0.28631269  0.42129540    -0.26200
C232        C  0.32567214  0.32001660  0.43015766    -0.14300
C233        C  0.30402736  0.33887967  0.40677018     0.36300
C234        C  0.29079312  0.32282376  0.37593358    -0.25700
C235        C  0.29850997  0.28856033  0.36810868    -0.14900
C236        C  0.32194678  0.27055521  0.39022327     0.37400
N237        N  0.33336749  0.23640017  0.38206562    -0.89200
H238        H  0.35163532  0.27199095  0.43889245     0.18500
H239        H  0.27312352  0.33676872  0.35877295     0.18500
N240        N  0.29402107  0.37371895  0.41384576    -0.88200
H241        H  0.36029756  0.23720560  0.37904122     0.35900
H242        H  0.32347931  0.22770682  0.35762746     0.41000
H243        H  0.30474302  0.38306754  0.43761563     0.40600
H244        H  0.26712268  0.37404446  0.41722149     0.35500
C245        C  0.33723634  0.33395665  0.96491930     0.03200
C246        C  0.36306189  0.35911702  0.96711689    -0.12900
C247        C  0.37447682  0.37114385  0.50046945     0.00700
C248        C  0.35913287  0.35877205  0.53188782    -0.11500
C249        C  0.33293215  0.33365253  0.53006915     0.03200
C250        C  0.32292326  0.32066746  0.99627370    -0.10900
H251        H  0.37446281  0.36917994  0.94289476     0.08800
H252        H  0.36739442  0.36892017  0.55757748     0.06300
H253        H  0.30369396  0.30044168  0.99431621     0.06200
C254        C  0.09632585  0.33539356  0.96702705     0.03200
C255        C  0.10671797  0.32080113  0.99958216    -0.12900
C256        C  0.09130903  0.33060623  0.53232353     0.00700
C257        C  0.06566530  0.35606767  0.53197091    -0.11500
C258        C  0.05584207  0.37160481  0.49975571     0.03200
C259        C  0.07092509  0.36110428  0.96731058    -0.10900
H260        H  0.12653246  0.30117861  0.99961195     0.08800
H261        H  0.05325638  0.36381581  0.55664862     0.06300
H262        H  0.06313664  0.37326346  0.94259506     0.06200
C263        C  0.33546651  0.08682378  0.96613216     0.03200
C264        C  0.32257308  0.09873477  0.99888298    -0.12900
C265        C  0.33599097  0.08741103  0.53142214     0.00700
C266        C  0.36214761  0.06247969  0.53117121    -0.11500
C267        C  0.37427872  0.04913331  0.49861611     0.03200
C268        C  0.36118042  0.06157183  0.96595926    -0.10900
H269        H  0.30169494  0.11726183  0.99895945     0.08800
H270        H  0.37345918  0.05374391  0.55604699     0.06300
H271        H  0.37110283  0.05185995  0.94081353     0.06200
N272        N  0.46521010  0.40804819  0.50322232    -0.36500
N273        N  0.01907344  0.46074228  0.49769520    -0.57100
N274        N  0.46475512  0.01305581  0.49448895    -0.36500
N275        N  0.41131735  0.46031623  0.50065900    -0.57100
C276        C  0.49349085  0.38791257  0.49909365     0.27100
C277        C  0.43683832  0.38762529  0.50034473     0.27100
C278        C  0.49306732  0.03352629  0.49733561     0.27100
C279        C  0.43647797  0.03321516  0.49837785     0.27100
C280        C  0.03997973  0.43317380  0.50051291     0.35700
C281        C  0.03988091  0.48862877  0.49793736     0.35700
C282        C  0.39043717  0.43255925  0.50259587     0.35700
C283        C  0.39036592  0.48792587  0.49927252     0.35700
C284        C  0.48294394  0.35418504  0.49448317    -0.21800
C285        C  0.44733474  0.35399860  0.49528684    -0.21800
C286        C  0.48254481  0.06720329  0.50196538    -0.21800
C287        C  0.44695921  0.06700835  0.50258451    -0.21800
C288        C  0.07433368  0.44359352  0.50250686    -0.22900
C289        C  0.07428669  0.47866071  0.50077604    -0.22900
C290        C  0.35597337  0.44264275  0.50265899    -0.22900
C291        C  0.35592822  0.47765588  0.50052494    -0.22900
C292        C  0.02883785  0.39862568  0.49980506    -0.18200
C293        C  0.40164912  0.39809529  0.50216782    -0.18200
C294        C  0.40136877  0.02236193  0.49842720    -0.18200
C295        C  0.02827017  0.02288353  0.49618073    -0.18200
H296        H  0.49920363  0.33192838  0.49066381     0.14700
H297        H  0.43105107  0.33154771  0.49224727     0.14700
H298        H  0.99879931  0.08949543  0.50464216     0.14700
H299        H  0.43069280  0.08927506  0.50629585     0.14700
H300        H  0.09711079  0.42761173  0.50481476     0.13000
H301        H  0.09703315  0.49494362  0.50185434     0.13000
H302        H  0.33316147  0.42646509  0.50360402     0.13000
H303        H  0.33308636  0.49369592  0.50001258     0.13000
H304        H  0.46538157  0.43369049  0.51032002     0.26200
H305        H  0.46479301  0.48749018  0.48717860     0.26200
C306        C  0.09517515  0.08874306  0.96745268     0.03200
C307        C  0.10800235  0.09974526  0.00075445    -0.12900
C308        C  0.09481630  0.08569091  0.53236673     0.00700
C309        C  0.06808748  0.06134638  0.53080865    -0.11500
C310        C  0.05526948  0.04996112  0.49764634     0.03200
C311        C  0.06920771  0.06348104  0.96620876    -0.10900
H312        H  0.12816751  0.11912836  0.00193535     0.08800
H313        H  0.05777274  0.05070910  0.55527673     0.06300
H314        H  0.05995634  0.05378118  0.94070410     0.06200
O315        O  0.28595402  0.27981471  0.80667088    -0.75200
O316        O  0.25709824  0.24863040  0.84868437    -0.54100
C317        C  0.27914890  0.27151359  0.83914942     0.78500
O318        O  0.14577863  0.27760640  0.68906695    -0.59800
O319        O  0.17349642  0.24357466  0.64856661    -0.52800
C320        C  0.15163326  0.26694324  0.65692496     0.70500
O321        O  0.15057205  0.28126079  0.81083861    -0.74400
O322        O  0.18259058  0.25082022  0.85103317    -0.54900
C323        C  0.16026967  0.27390360  0.84293039     0.76500
O324        O  0.28318946  0.27624771  0.68579552    -0.59500
O325        O  0.24840077  0.24721099  0.64646940    -0.52600
C326        C  0.27240881  0.26900710  0.65395927     0.73100
Zr327      Zr  0.26873185  0.25986887  0.74707571     2.54700
O328        O  0.27395049  0.32194867  0.74575169    -0.80100
O329        O  0.33153520  0.25327227  0.74583940    -0.93500
Zr330      Zr  0.16488303  0.26278065  0.74987368     2.64700
O331        O  0.16818726  0.32506795  0.74932649    -0.98400
O332        O  0.10180935  0.26426188  0.75139553    -0.80500
O333        O  0.21786434  0.26273134  0.78258949    -0.83900
O334        O  0.21576767  0.26174877  0.71449437    -2.18600
O335        O  0.28256232  0.14135064  0.68775149    -0.67300
O336        O  0.25195790  0.17353236  0.64794399    -0.51800
C337        C  0.27478490  0.15090144  0.65578365     0.71500
O338        O  0.14847602  0.14302438  0.81239872    -0.60200
O339        O  0.18163686  0.17376326  0.85191930    -0.52100
C340        C  0.15871515  0.15090992  0.84424585     0.73300
O341        O  0.14325911  0.14261414  0.69111737    -0.71600
O342        O  0.17600931  0.17042073  0.64957418    -0.50200
C343        C  0.15233018  0.14904376  0.65867829     0.74700
O344        O  0.28087331  0.13853709  0.80884189    -0.66900
O345        O  0.25510229  0.17391611  0.84947802    -0.54100
C346        C  0.27491534  0.14878230  0.84102990     0.73100
Zr347      Zr  0.26554868  0.15755020  0.74857181     2.77500
O348        O  0.26238365  0.09525642  0.74664939    -0.97600
O349        O  0.32865400  0.15775260  0.75058983    -0.78500
Zr350      Zr  0.16199172  0.16046833  0.75122708     2.70100
O351        O  0.15995689  0.09816940  0.75117545    -0.79700
O352        O  0.09914980  0.16464937  0.75503390    -0.98800
Zr353      Zr  0.21738310  0.21150311  0.81658222     2.21500
Zr354      Zr  0.21342002  0.20917626  0.68213538     2.11100
O355        O  0.21284041  0.15765819  0.71573423    -2.47500
O356        O  0.21474603  0.15912866  0.78410361    -0.79500
O357        O  0.26704695  0.20813169  0.71352765    -0.71700
O358        O  0.16365537  0.21220917  0.78493984    -2.32700
O359        O  0.26903107  0.20932393  0.78208490    -2.28900
O360        O  0.16162500  0.21103930  0.71631321    -0.73500
H361        H  0.21563617  0.28115740  0.69861984     0.78500
H362        H  0.14430963  0.21284281  0.80127495     0.79600
H363        H  0.21203819  0.13778622  0.70025891     0.81900
H364        H  0.28935042  0.20900495  0.79726563     0.79500
H365        H  0.09515243  0.24418261  0.76589229     0.42500
H366        H  0.09247765  0.17961247  0.73488195     0.41500
H367        H  0.17960250  0.09130395  0.76666680     0.41100
H368        H  0.24947028  0.08973018  0.72440842     0.39100
H369        H  0.33552628  0.17586404  0.73359096     0.42200
H370        H  0.33809065  0.24691565  0.77054599     0.37000
H371        H  0.24995961  0.33009621  0.74179200     0.43100
H372        H  0.17848136  0.33080867  0.72590092     0.39500
H373        H  0.28644866  0.08783953  0.74178772     0.44400
H374        H  0.34055374  0.27685617  0.74299087     0.43200
H375        H  0.14375473  0.33259764  0.74739556     0.43300
H376        H  0.09062539  0.14163234  0.74799745     0.43700
C377        C  0.08681747  0.11424010  0.59116769    -0.26200
C378        C  0.10902715  0.09738344  0.56721997    -0.14300
C379        C  0.14475460  0.09472492  0.57568521     0.36300
C380        C  0.15757594  0.11128832  0.60627887    -0.25700
C381        C  0.13572674  0.12968189  0.62927030    -0.14900
C382        C  0.09967305  0.13081759  0.62190403     0.37400
N383        N  0.07561057  0.14966481  0.64369514    -0.89200
H384        H  0.05942047  0.11616115  0.58489239     0.18500
H385        H  0.18513548  0.10999618  0.61204490     0.18500
N386        N  0.16879764  0.07575078  0.55395093    -0.88200
H387        H  0.06460062  0.16869365  0.62774066     0.35900
H388        H  0.08795798  0.16239958  0.66475807     0.41000
H389        H  0.15623789  0.06259747  0.53327382     0.40600
H390        H  0.17979266  0.05682033  0.57004568     0.35500
C391        C  0.14629546  0.09938699  0.92888306    -0.26200
C392        C  0.11043319  0.10277155  0.93427197    -0.14300
C393        C  0.09044510  0.12114894  0.90908247     0.36300
C394        C  0.10660375  0.13554525  0.87925550    -0.25700
C395        C  0.14252850  0.13289294  0.87443196    -0.14900
C396        C  0.16263272  0.11440222  0.89929481     0.37400
N397        N  0.19930940  0.11022593  0.89395861    -0.89200
H398        H  0.16164517  0.08529779  0.94814799     0.18500
H399        H  0.09118424  0.15003290  0.86037550     0.18500
N400        N  0.05415521  0.12722020  0.91404929    -0.88200
H401        H  0.20986334  0.09435952  0.91360227     0.35900
H402        H  0.21107228  0.13414184  0.89746770     0.41000
H403        H  0.05064325  0.13893891  0.93897014     0.40600
H404        H  0.04101573  0.10382870  0.91376857     0.35500
C405        C  0.31909549  0.13881544  0.56657455    -0.26200
C406        C  0.32323411  0.10309857  0.56517762    -0.14300
C407        C  0.31318221  0.08320564  0.59484826     0.36300
C408        C  0.29891718  0.09951204  0.62504902    -0.25700
C409        C  0.29331798  0.13500361  0.62551936    -0.14900
C410        C  0.30386881  0.15492062  0.59611733     0.37400
N411        N  0.29887806  0.19142515  0.59627539    -0.89200
H412        H  0.32732480  0.15424426  0.54414339     0.18500
H413        H  0.29056712  0.08429741  0.64758719     0.18500
N414        N  0.31615845  0.04654106  0.59368887    -0.88200
H415        H  0.30758237  0.20221694  0.57240602     0.35900
H416        H  0.31428877  0.20174800  0.61674153     0.41000
H417        H  0.29957083  0.03751896  0.57352778     0.40600
H418        H  0.30752026  0.03578902  0.61759737     0.35500
C419        C  0.30990711  0.08115727  0.90467076    -0.26200
C420        C  0.32263516  0.10211637  0.93246322    -0.14300
C421        C  0.32155823  0.13793034  0.92868626     0.36300
C422        C  0.30593075  0.15216076  0.89858077    -0.25700
C423        C  0.29269820  0.13154578  0.87095117    -0.14900
C424        C  0.29510703  0.09555927  0.87366471     0.37400
N425        N  0.28079231  0.07385534  0.84614228    -0.89200
H426        H  0.31069788  0.05359123  0.90760756     0.18500
H427        H  0.30390672  0.17966173  0.89694388     0.18500
N428        N  0.33660584  0.16000557  0.95532395    -0.88200
H429        H  0.28258750  0.04813764  0.85350982     0.35900
H430        H  0.29623693  0.07659274  0.82344108     0.41000
H431        H  0.35556452  0.17503085  0.94304428     0.40600
H432        H  0.31724128  0.17633460  0.96484005     0.35500
C433        C  0.10623623  0.27882010  0.56775828    -0.26200
C434        C  0.10310725  0.31460781  0.56628335    -0.14300
C435        C  0.11352340  0.33452912  0.59617101     0.36300
C436        C  0.12757033  0.31825908  0.62642612    -0.25700
C437        C  0.13233692  0.28268404  0.62698844    -0.14900
C438        C  0.12083407  0.26265770  0.59765133     0.37400
N439        N  0.12428168  0.22599209  0.59823939    -0.89200
H440        H  0.09774585  0.26342479  0.54515021     0.18500
H441        H  0.13652182  0.33357184  0.64890522     0.18500
N442        N  0.11122123  0.37123690  0.59515140    -0.88200
H443        H  0.11459251  0.21504998  0.57463710     0.35900
H444        H  0.10885703  0.21682647  0.61902880     0.41000
H445        H  0.12808620  0.37984019  0.57529193     0.40600
H446        H  0.11989141  0.38200510  0.61924643     0.35500
C447        C  0.14856859  0.31926832  0.93191788    -0.26200
C448        C  0.11238335  0.32320312  0.93316428    -0.14300
C449        C  0.09215585  0.31304436  0.90327969     0.36300
C450        C  0.10855512  0.29856655  0.87323257    -0.25700
C451        C  0.14449344  0.29301171  0.87295885    -0.14900
C452        C  0.16480245  0.30407437  0.90233330     0.37400
N453        N  0.20182627  0.29965159  0.90207529    -0.89200
H454        H  0.16421846  0.32756353  0.95450894     0.18500
H455        H  0.09303163  0.28997753  0.85066695     0.18500
N456        N  0.05501752  0.31609736  0.90407853    -0.88200
H457        H  0.21293031  0.30894893  0.92578253     0.35900
H458        H  0.21173432  0.31462271  0.88139267     0.41000
H459        H  0.04581896  0.29984488  0.92405305     0.40600
H460        H  0.04408424  0.30750365  0.88001082     0.35500
C461        C  0.33832781  0.30879609  0.59122912    -0.26200
C462        C  0.31689213  0.31972694  0.56307422    -0.14300
C463        C  0.28056084  0.31566467  0.56600415     0.36300
C464        C  0.26674537  0.29890216  0.59588560    -0.25700
C465        C  0.28827074  0.28726382  0.62358764    -0.14900
C466        C  0.32439086  0.29270291  0.62152940     0.37400
N467        N  0.34685636  0.28098838  0.64966459    -0.89200
H468        H  0.36617191  0.31183025  0.58904417     0.18500
H469        H  0.23893259  0.29528437  0.59783088     0.18500
N470        N  0.25783625  0.32884982  0.53880350    -0.88200
H471        H  0.37268140  0.28710188  0.64409551     0.35900
H472        H  0.34528497  0.25427097  0.65023549     0.41000
H473        H  0.26061432  0.35548443  0.53872749     0.40600
H474        H  0.23191932  0.32375459  0.54500702     0.35900
C475        C  0.33439897  0.28665345  0.92125962    -0.26200
C476        C  0.32553629  0.32041794  0.93000005    -0.14300
C477        C  0.30397114  0.33930493  0.90654910     0.36300
C478        C  0.29089525  0.32328650  0.87562067    -0.25700
C479        C  0.29839688  0.28893889  0.86798108    -0.14900
C480        C  0.32159593  0.27084196  0.89027246     0.37400
N481        N  0.33266818  0.23651129  0.88241514    -0.89200
H482        H  0.35121863  0.27228531  0.93895204     0.18500
H483        H  0.27334992  0.33726802  0.85835615     0.18500
N484        N  0.29372552  0.37405208  0.91374418    -0.88200
H485        H  0.35962932  0.23697090  0.87962328     0.35900
H486        H  0.32289577  0.22780605  0.85793464     0.41000
H487        H  0.30417184  0.38328788  0.93769026     0.40600
H488        H  0.26679458  0.37420751  0.91688279     0.35500
C489        C  0.33690193  0.83447615  0.46470392     0.03200
C490        C  0.36307578  0.85925312  0.46688023    -0.12900
C491        C  0.37438053  0.87141078  0.00057146     0.00700
C492        C  0.35903512  0.85897562  0.03194145    -0.11500
C493        C  0.33295403  0.83375514  0.03005270     0.03200
C494        C  0.32242277  0.82137321  0.49609391    -0.10900
H495        H  0.37458676  0.86916892  0.44264471     0.08800
H496        H  0.36723491  0.86912702  0.05765120     0.06300
H497        H  0.30298275  0.80134906  0.49413062     0.06200
C498        C  0.09594404  0.83476443  0.46713518     0.03200
C499        C  0.10615459  0.82013146  0.49973920    -0.12900
C500        C  0.09159543  0.83093420  0.03233780     0.00700
C501        C  0.06589853  0.85632092  0.03212678    -0.11500
C502        C  0.05554326  0.87150506  0.99991302     0.03200
C503        C  0.07094002  0.86085470  0.46737767    -0.10900
H504        H  0.12567326  0.80022327  0.49978623     0.08800
H505        H  0.05379113  0.86423856  0.05690638     0.06300
H506        H  0.06324318  0.87298239  0.44261732     0.06200
C507        C  0.33529538  0.58662646  0.46612256     0.03200
C508        C  0.32224229  0.59842697  0.49882926    -0.12900
C509        C  0.33641705  0.58723850  0.03163996     0.00700
C510        C  0.36279128  0.56255715  0.03126729    -0.11500
C511        C  0.37479367  0.54922083  0.99866976     0.03200
C512        C  0.36094810  0.56132522  0.46598391    -0.10900
H513        H  0.30135535  0.61694409  0.49887706     0.08800
H514        H  0.37431439  0.55394623  0.05609066     0.06300
H515        H  0.37096902  0.55166332  0.44085783     0.06200
N516        N  0.46516870  0.90798010  0.00355537    -0.36500
N517        N  0.01891885  0.96073680  0.99801475    -0.57100
N518        N  0.46514479  0.51292602  0.99458165    -0.36500
N519        N  0.41145332  0.96048368  0.00077741    -0.57100
C520        C  0.49336171  0.88773752  0.99943194     0.27100
C521        C  0.43673529  0.88766430  0.00066626     0.27100
C522        C  0.49352511  0.53328212  0.99762449     0.27100
C523        C  0.43694245  0.53316654  0.99848465     0.27100
C524        C  0.03981749  0.93307135  0.99969178     0.35700
C525        C  0.03982970  0.98851940  0.99693049     0.35700
C526        C  0.39050013  0.93278826  0.00283249     0.35700
C527        C  0.39058649  0.98816412  0.99942430     0.35700
C528        C  0.48270093  0.85403854  0.99486528    -0.21800
C529        C  0.44710161  0.85398443  0.99567076    -0.21800
C530        C  0.48312325  0.56698833  0.00230570    -0.21800
C531        C  0.44753496  0.56691771  0.00280743    -0.21800
C532        C  0.07426493  0.94335866  0.99967401    -0.22900
C533        C  0.07427760  0.97841466  0.99785608    -0.22900
C534        C  0.35607265  0.94298032  0.00301360    -0.22900
C535        C  0.35612636  0.97799630  0.00084334    -0.22900
C536        C  0.02856639  0.89853891  0.00019075    -0.18200
C537        C  0.40159963  0.89828375  0.00237952    -0.18200
C538        C  0.40180686  0.52240646  0.99843266    -0.18200
C539        C  0.02881010  0.52270487  0.99683833    -0.18200
H540        H  0.49887501  0.83172222  0.99103030     0.14700
H541        H  0.43074004  0.83158783  0.99263793     0.14700
H542        H  0.99966430  0.58956835  0.00455667     0.14700
H543        H  0.43134054  0.58923219  0.00653734     0.14700
H544        H  0.09707193  0.92730257  0.00077730     0.13000
H545        H  0.09710455  0.99460400  0.99761655     0.13000
H546        H  0.33321802  0.92686920  0.00405721     0.13000
H547        H  0.33333196  0.99410220  0.00037179     0.13000
H548        H  0.46541511  0.93362953  0.01060796     0.26200
H549        H  0.46503540  0.98731004  0.98763062     0.26200
C550        C  0.09522102  0.58854808  0.46724876     0.03200
C551        C  0.10798127  0.59980968  0.50050976    -0.12900
C552        C  0.09533456  0.58567873  0.03265516     0.00700
C553        C  0.06875683  0.56117745  0.03126410    -0.11500
C554        C  0.05596792  0.54960710  0.99817116     0.03200
C555        C  0.06924679  0.56329993  0.46614340    -0.10900
H556        H  0.12820507  0.61913525  0.50157257     0.08800
H557        H  0.05847062  0.55065413  0.05580067     0.06300
H558        H  0.06004349  0.55343448  0.44068516     0.06200
O559        O  0.28638977  0.77928095  0.30660372    -0.75200
O560        O  0.25743278  0.74824758  0.34867829    -0.54100
C561        C  0.27952479  0.77107452  0.33910831     0.78500
O562        O  0.14587721  0.77770998  0.18908004    -0.59800
O563        O  0.17416519  0.74419119  0.14854196    -0.52800
C564        C  0.15204952  0.76734528  0.15692255     0.70500
O565        O  0.15044696  0.78139497  0.31049336    -0.74400
O566        O  0.18283389  0.75130467  0.35063041    -0.54900
C567        C  0.16030888  0.77422035  0.34256915     0.76500
O568        O  0.28358740  0.77572945  0.18557750    -0.59500
O569        O  0.24877660  0.74677824  0.14622176    -0.52600
C570        C  0.27279210  0.76853776  0.15373101     0.73100
Zr571      Zr  0.26908377  0.75952626  0.24692467     2.54700
O572        O  0.27355470  0.82162369  0.24524660    -0.80100
O573        O  0.33194558  0.75332508  0.24514709    -0.93500
Zr574      Zr  0.16505358  0.76268871  0.24971312     2.64700
O575        O  0.16687422  0.82500420  0.24943259    -0.98400
O576        O  0.10194754  0.76301487  0.25080928    -0.80500
O577        O  0.21813017  0.76258402  0.28232554    -0.83900
O578        O  0.21607962  0.76161092  0.21444344    -2.18600
O579        O  0.28307645  0.64132129  0.18802115    -0.67300
O580        O  0.25185741  0.67275244  0.14803354    -0.51800
C581        C  0.27500197  0.65044958  0.15600238     0.71500
O582        O  0.14831749  0.64330970  0.31231487    -0.60200
O583        O  0.18139978  0.67407354  0.35190224    -0.52100
C584        C  0.15843751  0.65126663  0.34418622     0.73300
O585        O  0.14340205  0.64284656  0.19106715    -0.71600
O586        O  0.17579601  0.67099924  0.14949663    -0.50200
C587        C  0.15227491  0.64950765  0.15865451     0.74700
O588        O  0.28103158  0.63895535  0.30917817    -0.66900
O589        O  0.25483104  0.67400973  0.34982420    -0.54100
C590        C  0.27485562  0.64906037  0.34136892     0.73100
Zr591      Zr  0.26548189  0.65724120  0.24870703     2.77500
O592        O  0.26066049  0.59505266  0.24682514    -0.97600
O593        O  0.32854923  0.65519816  0.25084577    -0.78500
Zr594      Zr  0.16196446  0.66060641  0.25112443     2.70100
O595        O  0.15810652  0.59839605  0.24984443    -0.79700
O596        O  0.09917055  0.66557770  0.25439095    -0.98800
Zr597      Zr  0.21744923  0.71148844  0.31650546     2.21500
Zr598      Zr  0.21368442  0.70909794  0.18203913     2.11100
O599        O  0.21287505  0.65761326  0.21572266    -2.47500
O600        O  0.21464311  0.65896318  0.28417722    -0.79500
O601        O  0.26727824  0.70775117  0.21350671    -0.71700
O602        O  0.16370467  0.71226015  0.28490878    -2.32700
O603        O  0.26917129  0.70906704  0.28207246    -2.28900
O604        O  0.16179773  0.71104284  0.21605436    -0.73500
H605        H  0.21601666  0.78103444  0.19858737     0.78500
H606        H  0.14436054  0.71294250  0.30124099     0.79600
H607        H  0.21203312  0.63774537  0.20024301     0.81900
H608        H  0.28947473  0.70869759  0.29727580     0.79500
H609        H  0.09563077  0.74602331  0.26922280     0.42500
H610        H  0.09313321  0.68251815  0.23580279     0.41500
H611        H  0.18244311  0.59065051  0.24779870     0.41100
H612        H  0.25164591  0.58955945  0.22263207     0.39100
H613        H  0.33609345  0.67610377  0.23817693     0.42200
H614        H  0.33831811  0.74339201  0.26855963     0.37000
H615        H  0.24924431  0.82951116  0.24331456     0.43100
H616        H  0.17676252  0.83107327  0.22591321     0.39500
H617        H  0.28495294  0.58691155  0.24656644     0.44400
H618        H  0.34094128  0.77707967  0.24621454     0.43200
H619        H  0.14223819  0.83194532  0.24781888     0.43300
H620        H  0.09034875  0.64350455  0.24483583     0.43700
C621        C  0.08706340  0.61422326  0.09134141    -0.26200
C622        C  0.10946828  0.59764972  0.06736992    -0.14300
C623        C  0.14525967  0.59547360  0.07570024     0.36300
C624        C  0.15788728  0.61210210  0.10627775    -0.25700
C625        C  0.13581487  0.63011020  0.12933144    -0.14900
C626        C  0.09974224  0.63082234  0.12211028     0.37400
N627        N  0.07548164  0.64918842  0.14411632    -0.89200
H628        H  0.05963207  0.61581082  0.08511844     0.18500
H629        H  0.18547728  0.61116577  0.11198888     0.18500
N630        N  0.16956745  0.57695490  0.05385172    -0.88200
H631        H  0.06429524  0.66829009  0.12838949     0.35900
H632        H  0.08767776  0.66179125  0.16535795     0.41000
H633        H  0.15719281  0.56362338  0.03318687     0.40600
H634        H  0.18094213  0.55818276  0.06986986     0.35500
C635        C  0.14607514  0.59874842  0.42813582    -0.26200
C636        C  0.11032372  0.60251385  0.43395835    -0.14300
C637        C  0.09029553  0.62132621  0.40915561     0.36300
C638        C  0.10638860  0.63616703  0.37951703    -0.25700
C639        C  0.14223943  0.63319268  0.37432676    -0.14900
C640        C  0.16230473  0.61397236  0.39859337     0.37400
N641        N  0.19883226  0.60930618  0.39268656    -0.89200
H642        H  0.16142384  0.58421312  0.44703126     0.18500
H643        H  0.09097076  0.65106889  0.36099395     0.18500
N644        N  0.05398306  0.62717125  0.41424179    -0.88200
H645        H  0.20936103  0.59293876  0.41188651     0.35900
H646        H  0.21101843  0.63298163  0.39645523     0.41000
H647        H  0.05041522  0.63844414  0.43937375     0.40600
H648        H  0.04097764  0.60370495  0.41354874     0.35500
C649        C  0.31957074  0.63851273  0.06696369    -0.26200
C650        C  0.32373442  0.60281261  0.06547969    -0.14300
C651        C  0.31386575  0.58285234  0.09518291     0.36300
C652        C  0.29939826  0.59906838  0.12535014    -0.25700
C653        C  0.29368131  0.63454818  0.12583571    -0.14900
C654        C  0.30441279  0.65454365  0.09658444     0.37400
N655        N  0.29973382  0.69108341  0.09702644    -0.89200
H656        H  0.32778278  0.65398942  0.04456193     0.18500
H657        H  0.29106739  0.58381108  0.14786509     0.18500
N658        N  0.31732065  0.54622478  0.09412964    -0.88200
H659        H  0.30864478  0.70197701  0.07329072     0.35900
H660        H  0.31516217  0.70111083  0.11763932     0.41000
H661        H  0.30085796  0.53692749  0.07399676     0.40600
H662        H  0.30884411  0.53542843  0.11807825     0.35500
C663        C  0.30988263  0.58125288  0.40464352    -0.26200
C664        C  0.32265126  0.60209140  0.43249742    -0.14300
C665        C  0.32144917  0.63793796  0.42898220     0.36300
C666        C  0.30590311  0.65231213  0.39890783    -0.25700
C667        C  0.29259804  0.63178736  0.37124479    -0.14900
C668        C  0.29481655  0.59578904  0.37386736     0.37400
N669        N  0.27982948  0.57421938  0.34660650    -0.89200
H670        H  0.31064360  0.55367329  0.40746149     0.18500
H671        H  0.30391201  0.67983455  0.39736350     0.18500
N672        N  0.33613916  0.65989773  0.45593717    -0.88200
H673        H  0.28144236  0.54848797  0.35396596     0.35900
H674        H  0.29490861  0.57677091  0.32362601     0.41000
H675        H  0.35504685  0.67520095  0.44395378     0.40600
H676        H  0.31656403  0.67596611  0.46548238     0.35500
C677        C  0.10691509  0.77925715  0.06769310    -0.26200
C678        C  0.10365286  0.81502991  0.06624829    -0.14300
C679        C  0.11388514  0.83496147  0.09620588     0.36300
C680        C  0.12780044  0.81868473  0.12653266    -0.25700
C681        C  0.13275130  0.78312353  0.12701585    -0.14900
C682        C  0.12141722  0.76310930  0.09762345     0.37400
N683        N  0.12488242  0.72644701  0.09822777    -0.89200
H684        H  0.09851466  0.76384025  0.04506723     0.18500
H685        H  0.13655778  0.83398320  0.14910310     0.18500
N686        N  0.11157631  0.87167062  0.09517658    -0.88200
H687        H  0.11541804  0.71550954  0.07452830     0.35900
H688        H  0.10927141  0.71725540  0.11886177     0.41000
H689        H  0.12855343  0.88027475  0.07541798     0.40600
H690        H  0.12011234  0.88243879  0.11932238     0.35500
C691        C  0.14822054  0.81841370  0.43216928    -0.26200
C692        C  0.11205618  0.82253241  0.43327671    -0.14300
C693        C  0.09196268  0.81294975  0.40308451     0.36300
C694        C  0.10848427  0.79891094  0.37285169    -0.25700
C695        C  0.14441842  0.79321005  0.37267422    -0.14900
C696        C  0.16457833  0.80374540  0.40236756     0.37400
N697        N  0.20160775  0.79937230  0.40218939    -0.89200
H698        H  0.16378952  0.82629720  0.45497473     0.18500
H699        H  0.09304429  0.79074571  0.35005758     0.18500
N700        N  0.05483332  0.81614033  0.40373423    -0.88200
H701        H  0.21259789  0.80820397  0.42614191     0.35900
H702        H  0.21158623  0.81477180  0.38188702     0.41000
H703        H  0.04546613  0.79961316  0.42337811     0.40600
H704        H  0.04399357  0.80796651  0.37946549     0.35500
C705        C  0.33844533  0.80904828  0.09125022    -0.26200
C706        C  0.31696804  0.81972508  0.06301870    -0.14300
C707        C  0.28067920  0.81524544  0.06580898     0.36300
C708        C  0.26697473  0.79830153  0.09562017    -0.25700
C709        C  0.28855778  0.78688383  0.12338207    -0.14900
C710        C  0.32461406  0.79271728  0.12145109     0.37400
N711        N  0.34713839  0.78109492  0.14957705    -0.89200
H712        H  0.36626016  0.81240192  0.08917181     0.18500
H713        H  0.23919671  0.79437806  0.09746656     0.18500
N714        N  0.25788330  0.82820093  0.03854687    -0.88200
H715        H  0.37291222  0.78749181  0.14410148     0.35900
H716        H  0.34583934  0.75435970  0.14999214     0.41000
H717        H  0.26035053  0.85486469  0.03850817     0.40600
H718        H  0.23200684  0.82280163  0.04465225     0.35900
C719        C  0.33447564  0.78697208  0.42130076    -0.26200
C720        C  0.32543436  0.82074955  0.42977533    -0.14300
C721        C  0.30415335  0.83950346  0.40593162     0.36300
C722        C  0.29094725  0.82311014  0.37527178    -0.25700
C723        C  0.29858799  0.78872705  0.36792738    -0.14900
C724        C  0.32192818  0.77093563  0.39032881     0.37400
N725        N  0.33346275  0.73673647  0.38256172    -0.89200
H726        H  0.35131880  0.77280165  0.43914395     0.18500
H727        H  0.27344044  0.83692324  0.35781616     0.18500
N728        N  0.29461955  0.87459587  0.41227048    -0.88200
H729        H  0.36041034  0.73757955  0.37969334     0.35900
H730        H  0.32374546  0.72783482  0.35813324     0.41000
H731        H  0.30540621  0.88420412  0.43589643     0.40600
H732        H  0.26771590  0.87537931  0.41550006     0.35500
C733        C  0.33755767  0.83376329  0.96503126     0.03200
C734        C  0.36349604  0.85882216  0.96717882    -0.12900
C735        C  0.37451445  0.87120859  0.50030797     0.00700
C736        C  0.35944868  0.85849439  0.53171278    -0.11500
C737        C  0.33304309  0.83360129  0.52982369     0.03200
C738        C  0.32286154  0.82093195  0.99641157    -0.10900
H739        H  0.37517114  0.86854130  0.94294224     0.08800
H740        H  0.36803856  0.86827396  0.55744264     0.06300
H741        H  0.30356290  0.80076712  0.99451654     0.06200
C742        C  0.09575476  0.83502158  0.96719221     0.03200
C743        C  0.10612329  0.82036328  0.99973569    -0.12900
C744        C  0.09162727  0.83087169  0.53229109     0.00700
C745        C  0.06604765  0.85638514  0.53195272    -0.11500
C746        C  0.05581922  0.87150596  0.49965199     0.03200
C747        C  0.07057999  0.86095692  0.96754956    -0.10900
H748        H  0.12575962  0.80056662  0.99969689     0.08800
H749        H  0.05391295  0.86441301  0.55668031     0.06300
H750        H  0.06275561  0.87309246  0.94283484     0.06200
C751        C  0.33556711  0.58657355  0.96631464     0.03200
C752        C  0.32251790  0.59841036  0.99903266    -0.12900
C753        C  0.33614870  0.58724160  0.53140249     0.00700
C754        C  0.36249431  0.56251434  0.53100135    -0.11500
C755        C  0.37443671  0.54915158  0.49837589     0.03200
C756        C  0.36131838  0.56135636  0.96624489    -0.10900
H757        H  0.30160975  0.61690225  0.99906508     0.08800
H758        H  0.37402704  0.55389225  0.55581464     0.06300
H759        H  0.37137067  0.55166986  0.94114466     0.06200
N760        N  0.46522717  0.90797127  0.50347348    -0.36500
N761        N  0.01884638  0.96055672  0.49700011    -0.57100
N762        N  0.46491862  0.51321327  0.49395912    -0.36500
N763        N  0.41123024  0.96030037  0.50095441    -0.57100
C764        C  0.49348599  0.88785128  0.49904101     0.27100
C765        C  0.43684570  0.88762994  0.50013990     0.27100
C766        C  0.49322636  0.53366930  0.49708129     0.27100
C767        C  0.43663512  0.53333098  0.49793393     0.27100
C768        C  0.03984602  0.93302309  0.49949694     0.35700
C769        C  0.03963211  0.98845059  0.49662342     0.35700
C770        C  0.39039805  0.93251972  0.50269418     0.35700
C771        C  0.39022496  0.98787159  0.49958008     0.35700
C772        C  0.48290691  0.85422330  0.49375252    -0.21800
C773        C  0.44730124  0.85407933  0.49444961    -0.21800
C774        C  0.48269703  0.56732155  0.50186913    -0.21800
C775        C  0.44710308  0.56711362  0.50235995    -0.21800
C776        C  0.07422113  0.94348414  0.50059307    -0.22900
C777        C  0.07409815  0.97852991  0.49866629    -0.22900
C778        C  0.35590550  0.94254160  0.50263494    -0.22900
C779        C  0.35580023  0.97755709  0.50062874    -0.22900
C780        C  0.02875698  0.89845373  0.49966953    -0.18200
C781        C  0.40167331  0.89809653  0.50211059    -0.18200
C782        C  0.40153891  0.52242168  0.49803502    -0.18200
C783        C  0.02857952  0.52308148  0.49678750    -0.18200
H784        H  0.49914258  0.83201809  0.48951010     0.14700
H785        H  0.43098828  0.83171497  0.49089081     0.14700
H786        H  0.99912664  0.59001098  0.50265885     0.14700
H787        H  0.43082537  0.58934752  0.50623367     0.14700
H788        H  0.09705982  0.92754994  0.50258518     0.13000
H789        H  0.09683625  0.99484175  0.49926219     0.13000
H790        H  0.33311486  0.92632101  0.50337666     0.13000
H791        H  0.33293688  0.99356465  0.50003187     0.13000
H792        H  0.46538356  0.93347728  0.51115107     0.26200
H793        H  0.46465724  0.98729709  0.48787955     0.26200
C794        C  0.09551424  0.58810377  0.96749066     0.03200
C795        C  0.10818468  0.59942702  0.00073973    -0.12900
C796        C  0.09500703  0.58616615  0.53244851     0.00700
C797        C  0.06834910  0.56176884  0.53103900    -0.11500
C798        C  0.05560618  0.55012457  0.49797267     0.03200
C799        C  0.06965146  0.56276246  0.96636949    -0.10900
H800        H  0.12826280  0.61890235  0.00181341     0.08800
H801        H  0.05803689  0.55127048  0.55557607     0.06300
H802        H  0.06054651  0.55280045  0.94091979     0.06200
O803        O  0.28661972  0.77950048  0.80648915    -0.75200
O804        O  0.25736376  0.74880825  0.84861271    -0.54100
C805        C  0.27968172  0.77142048  0.83901021     0.78500
O806        O  0.14605103  0.77785521  0.68908689    -0.59800
O807        O  0.17357528  0.74361703  0.64866180    -0.52800
C808        C  0.15186516  0.76714711  0.65696745     0.70500
O809        O  0.15044700  0.78118952  0.81082841    -0.74400
O810        O  0.18290124  0.75131932  0.85109555    -0.54900
C811        C  0.16032385  0.77415418  0.84294633     0.76500
O812        O  0.28343980  0.77571582  0.68552229    -0.59500
O813        O  0.24869275  0.74655896  0.64624598    -0.52600
C814        C  0.27276250  0.76832294  0.65367635     0.73100
Zr815      Zr  0.26876489  0.75980630  0.74694984     2.54700
O816        O  0.27317892  0.82195967  0.74635010    -0.80100
O817        O  0.33158331  0.75351173  0.74487339    -0.93500
Zr818      Zr  0.16480301  0.76262063  0.74986905     2.64700
O819        O  0.16601653  0.82494832  0.74935819    -0.98400
O820        O  0.10173292  0.76368758  0.75162315    -0.80500
O821        O  0.21787326  0.76275090  0.78246641    -0.83900
O822        O  0.21574115  0.76163146  0.71443304    -2.18600
O823        O  0.28257030  0.64112071  0.68784975    -0.67300
O824        O  0.25166842  0.67295564  0.64794794    -0.51800
C825        C  0.27461672  0.65043572  0.65583100     0.71500
O826        O  0.14848872  0.64324330  0.81275019    -0.60200
O827        O  0.18146085  0.67422507  0.85225412    -0.52100
C828        C  0.15860320  0.65128378  0.84460289     0.73300
O829        O  0.14351716  0.64179382  0.69169982    -0.71600
O830        O  0.17554422  0.67024669  0.65004705    -0.50200
C831        C  0.15222516  0.64852680  0.65925388     0.74700
O832        O  0.28088271  0.63841918  0.80902461    -0.66900
O833        O  0.25494011  0.67371754  0.84963153    -0.54100
C834        C  0.27478585  0.64857528  0.84122006     0.73100
Zr835      Zr  0.26560580  0.65748838  0.74873096     2.77500
O836        O  0.26143240  0.59526485  0.74688761    -0.97600
O837        O  0.32872353  0.65716085  0.75090302    -0.78500
Zr838      Zr  0.16209276  0.66037299  0.75148848     2.70100
O839        O  0.15981432  0.59807798  0.75117477    -0.79700
O840        O  0.09919127  0.66454064  0.75393463    -0.98800
Zr841      Zr  0.21744876  0.71165294  0.81673147     2.21500
Zr842      Zr  0.21338477  0.70897577  0.68215043     2.11100
O843        O  0.21290155  0.65759389  0.71593331    -2.47500
O844        O  0.21486198  0.65919805  0.78435366    -0.79500
O845        O  0.26700193  0.70798818  0.71356207    -0.71700
O846        O  0.16363505  0.71217437  0.78510780    -2.32700
O847        O  0.26907907  0.70936004  0.78214782    -2.28900
O848        O  0.16157966  0.71082781  0.71636400    -0.73500
H849        H  0.21564341  0.78099896  0.69850073     0.78500
H850        H  0.14425139  0.71285523  0.80139514     0.79600
H851        H  0.21210034  0.63769450  0.70050044     0.81900
H852        H  0.28942095  0.70905972  0.79730005     0.79500
H853        H  0.09438968  0.74473947  0.73559659     0.42500
H854        H  0.09300645  0.67998913  0.73402841     0.41500
H855        H  0.18267371  0.59097971  0.76068659     0.41100
H856        H  0.24877644  0.58989105  0.72445217     0.39100
H857        H  0.33574725  0.67693515  0.73612606     0.42200
H858        H  0.33850270  0.74734059  0.76952722     0.37000
H859        H  0.24900092  0.82986160  0.74314621     0.43100
H860        H  0.18080767  0.83093911  0.72873898     0.39500
H861        H  0.28544209  0.58745455  0.74243719     0.44400
H862        H  0.34045780  0.77710959  0.74171271     0.43200
H863        H  0.14231074  0.83158927  0.74189029     0.43300
H864        H  0.09081128  0.64172530  0.74602919     0.43700
C865        C  0.08688717  0.61436071  0.59139007    -0.26200
C866        C  0.10920412  0.59786799  0.56726573    -0.14300
C867        C  0.14490219  0.59508174  0.57580765     0.36300
C868        C  0.15758226  0.61113012  0.60672763    -0.25700
C869        C  0.13564377  0.62917439  0.62989942    -0.14900
C870        C  0.09961206  0.63039408  0.62247542     0.37400
N871        N  0.07545303  0.64876320  0.64459353    -0.89200
H872        H  0.05949979  0.61631760  0.58507805     0.18500
H873        H  0.18512870  0.60980507  0.61255730     0.18500
N874        N  0.16907018  0.57649697  0.55385616    -0.88200
H875        H  0.06463483  0.66823752  0.62909555     0.35900
H876        H  0.08767626  0.66088048  0.66611855     0.41000
H877        H  0.15665698  0.56366203  0.53287859     0.40600
H878        H  0.18001519  0.55731761  0.56966069     0.35500
C879        C  0.14650439  0.59911180  0.92886610    -0.26200
C880        C  0.11061460  0.60214075  0.93424895    -0.14300
C881        C  0.09044146  0.62036007  0.90908701     0.36300
C882        C  0.10653018  0.63533303  0.87952210    -0.25700
C883        C  0.14250404  0.63313080  0.87477419    -0.14900
C884        C  0.16271740  0.61446926  0.89939969     0.37400
N885        N  0.19938031  0.61041403  0.89389406    -0.89200
H886        H  0.16196789  0.58502307  0.94803541     0.18500
H887        H  0.09097908  0.64975555  0.86070368     0.18500
N888        N  0.05396793  0.62555558  0.91374882    -0.88200
H889        H  0.21001959  0.59432778  0.91329103     0.35900
H890        H  0.21110872  0.63431169  0.89765820     0.41000
H891        H  0.04991211  0.63683029  0.93879855     0.40600
H892        H  0.04137035  0.60188151  0.91293316     0.35500
C893        C  0.31929578  0.63851950  0.56674278    -0.26200
C894        C  0.32342434  0.60281634  0.56522209    -0.14300
C895        C  0.31330140  0.58282172  0.59478923     0.36300
C896        C  0.29876721  0.59901090  0.62494820    -0.25700
C897        C  0.29319626  0.63451945  0.62555103    -0.14900
C898        C  0.30400432  0.65453185  0.59631314     0.37400
N899        N  0.29926176  0.69106498  0.59669627    -0.89200
H900        H  0.32761240  0.65401024  0.54439043     0.18500
H901        H  0.29030007  0.58371635  0.64737885     0.18500
N902        N  0.31658318  0.54618204  0.59359531    -0.88200
H903        H  0.30819410  0.70194934  0.57296277     0.35900
H904        H  0.31463077  0.70114747  0.61732590     0.41000
H905        H  0.30020401  0.53704275  0.57331092     0.40600
H906        H  0.30789426  0.53533400  0.61743512     0.35500
C907        C  0.31018213  0.58090178  0.90474430    -0.26200
C908        C  0.32277459  0.60186323  0.93260499    -0.14300
C909        C  0.32137716  0.63768088  0.92895089     0.36300
C910        C  0.30564612  0.65189123  0.89888511    -0.25700
C911        C  0.29253171  0.63128673  0.87118740    -0.14900
C912        C  0.29516585  0.59529315  0.87382258     0.37400
N913        N  0.28081678  0.57355309  0.84634949    -0.89200
H914        H  0.31116508  0.55333311  0.90760160     0.18500
H915        H  0.30343787  0.67938615  0.89734163     0.18500
N916        N  0.33613251  0.65979992  0.95572139    -0.88200
H917        H  0.28280781  0.54783258  0.85365777     0.35900
H918        H  0.29609671  0.57641659  0.82354956     0.41000
H919        H  0.35493228  0.67510069  0.94355425     0.40600
H920        H  0.31656000  0.67585877  0.96528667     0.35500
C921        C  0.10678750  0.77918830  0.56768101    -0.26200
C922        C  0.10356339  0.81496113  0.56625225    -0.14300
C923        C  0.11394492  0.83487158  0.59616850     0.36300
C924        C  0.12779138  0.81855323  0.62651218    -0.25700
C925        C  0.13267755  0.78297590  0.62699491    -0.14900
C926        C  0.12144252  0.76301010  0.59750674     0.37400
N927        N  0.12526909  0.72637523  0.59783012    -0.89200
H928        H  0.09835528  0.76379318  0.54505186     0.18500
H929        H  0.13658781  0.83383561  0.64907859     0.18500
N930        N  0.11190626  0.87159399  0.59505650    -0.88200
H931        H  0.11593123  0.71550334  0.57404492     0.35900
H932        H  0.10976962  0.71687112  0.61839606     0.41000
H933        H  0.12891044  0.88002625  0.57524039     0.40600
H934        H  0.12058632  0.88235027  0.61915430     0.35500
C935        C  0.14810227  0.81910871  0.93215640    -0.26200
C936        C  0.11190691  0.82294752  0.93330085    -0.14300
C937        C  0.09183716  0.81299773  0.90322736     0.36300
C938        C  0.10841440  0.79880368  0.87310578    -0.25700
C939        C  0.14437908  0.79326335  0.87295256    -0.14900
C940        C  0.16451294  0.80418310  0.90252135     0.37400
N941        N  0.20155077  0.79986212  0.90243699    -0.89200
H942        H  0.16363949  0.82728497  0.95487536     0.18500
H943        H  0.09299699  0.79036347  0.85040453     0.18500
N944        N  0.05468671  0.81594157  0.90391028    -0.88200
H945        H  0.21249976  0.80896877  0.92629988     0.35900
H946        H  0.21154595  0.81504135  0.88196281     0.41000
H947        H  0.04546585  0.79949821  0.92370370     0.40600
H948        H  0.04387041  0.80750539  0.87972666     0.35500
C949        C  0.33862167  0.80857808  0.59101556    -0.26200
C950        C  0.31714204  0.81940779  0.56282592    -0.14300
C951        C  0.28083645  0.81513814  0.56577591     0.36300
C952        C  0.26712591  0.79807111  0.59551891    -0.25700
C953        C  0.28867161  0.78652232  0.62324074    -0.14900
C954        C  0.32475050  0.79234789  0.62129893     0.37400
N955        N  0.34723875  0.78097964  0.64957184    -0.89200
H956        H  0.36644363  0.81185650  0.58891514     0.18500
H957        H  0.23933412  0.79428376  0.59741769     0.18500
N958        N  0.25800012  0.82854156  0.53879519    -0.88200
H959        H  0.37300941  0.78740848  0.64411442     0.35900
H960        H  0.34600252  0.75424860  0.65021095     0.41000
H961        H  0.26067854  0.85518783  0.53904682     0.40600
H962        H  0.23211572  0.82328220  0.54499073     0.35900
C963        C  0.33444375  0.78620893  0.92157076    -0.26200
C964        C  0.32593015  0.82011667  0.93010861    -0.14300
C965        C  0.30489026  0.83920040  0.90632594     0.36300
C966        C  0.29189031  0.82323535  0.87532449    -0.25700
C967        C  0.29904388  0.78877900  0.86784804    -0.14900
C968        C  0.32182073  0.77048905  0.89043355     0.37400
N969        N  0.33265046  0.73605549  0.88270471    -0.89200
H970        H  0.35090290  0.77169024  0.93948486     0.18500
H971        H  0.27465919  0.83736848  0.85786213     0.18500
N972        N  0.29510072  0.87413272  0.91323564    -0.88200
H973        H  0.35964528  0.73626950  0.88023079     0.35900
H974        H  0.32307552  0.72745264  0.85810145     0.41000
H975        H  0.30536283  0.88332557  0.93728099     0.40600
H976        H  0.26813892  0.87471427  0.91600766     0.35500
C977        C  0.83703382  0.33430157  0.46491141     0.03200
C978        C  0.86326985  0.35904519  0.46694747    -0.12900
C979        C  0.87440418  0.37148529  0.00097512     0.00700
C980        C  0.85907124  0.35878262  0.03221980    -0.11500
C981        C  0.83298336  0.33359547  0.03008958     0.03200
C982        C  0.82240356  0.32150541  0.49634273    -0.10900
H983        H  0.87483183  0.36876977  0.44265428     0.08800
H984        H  0.86727553  0.36871845  0.05801999     0.06300
H985        H  0.80288546  0.30154571  0.49448606     0.06200
C986        C  0.59637558  0.33554847  0.46699957     0.03200
C987        C  0.60663206  0.32085844  0.49955602    -0.12900
C988        C  0.59170799  0.33091695  0.03230608     0.00700
C989        C  0.56582551  0.35610334  0.03211740    -0.11500
C990        C  0.55538896  0.37123221  0.99991554     0.03200
C991        C  0.57108719  0.36138640  0.46727553    -0.10900
H992        H  0.62629448  0.30108553  0.49958733     0.08800
H993        H  0.55365958  0.36392883  0.05689828     0.06300
H994        H  0.56331387  0.37350433  0.44253279     0.06200
C995        C  0.83561858  0.08679461  0.46612163     0.03200
C996        C  0.82239242  0.09853153  0.49877245    -0.12900
C997        C  0.83592296  0.08711221  0.03142122     0.00700
C998        C  0.86251803  0.06264588  0.03103890    -0.11500
C999        C  0.87465786  0.04943587  0.99842968     0.03200
C1000       C  0.86115694  0.06135717  0.46609757    -0.10900
H1001       H  0.80157540  0.11712396  0.49874093     0.08800
H1002       H  0.87411302  0.05411885  0.05585755     0.06300
H1003       H  0.87133906  0.05175851  0.44101665     0.06200
N1004       N  0.96522950  0.40791462  0.00409022    -0.36500
N1005       N  0.51886255  0.46041389  0.99801534    -0.57100
N1006       N  0.96511220  0.01326148  0.99441260    -0.36500
N1007       N  0.91153233  0.46047195  0.00144440    -0.57100
C1008       C  0.99337601  0.38765091  0.99974351     0.27100
C1009       C  0.93676774  0.38762101  0.00138654     0.27100
C1010       C  0.99348126  0.03362441  0.99749970     0.27100
C1011       C  0.93688245  0.03348438  0.99826073     0.27100
C1012       C  0.53971759  0.43273489  0.99980377     0.35700
C1013       C  0.53982075  0.48816830  0.99711220     0.35700
C1014       C  0.89056967  0.43279076  0.00348732     0.35700
C1015       C  0.89066181  0.48814150  0.99999719     0.35700
C1016       C  0.98266771  0.35395175  0.99531934    -0.21800
C1017       C  0.94707683  0.35392312  0.99639581    -0.21800
C1018       C  0.98305020  0.06732465  0.00219935    -0.21800
C1019       C  0.94744935  0.06723964  0.00261785    -0.21800
C1020       C  0.57418059  0.44298101  0.00000637    -0.22900
C1021       C  0.57424853  0.47803320  0.99823390    -0.22900
C1022       C  0.85614075  0.44298131  0.00359424    -0.22900
C1023       C  0.85619831  0.47798290  0.00136965    -0.22900
C1024       C  0.52842978  0.39822523  0.00021789    -0.18200
C1025       C  0.90164968  0.39829218  0.00304732    -0.18200
C1026       C  0.90174959  0.02268818  0.99815594    -0.18200
C1027       C  0.52876041  0.02280475  0.99661191    -0.18200
H1028       H  0.99880186  0.33162642  0.99136300     0.14700
H1029       H  0.93067576  0.33154258  0.99346313     0.14700
H1030       H  0.49956439  0.08961412  0.00448090     0.14700
H1031       H  0.93122796  0.08954175  0.00630886     0.14700
H1032       H  0.59696330  0.42690096  0.00125870     0.13000
H1033       H  0.59709278  0.49420138  0.99818868     0.13000
H1034       H  0.83328070  0.42687615  0.00461360     0.13000
H1035       H  0.83340196  0.49408343  0.00081260     0.13000
H1036       H  0.96553627  0.43357879  0.01108617     0.26200
H1037       H  0.96504759  0.48723857  0.98815038     0.26200
C1038       C  0.59475409  0.08882694  0.46726730     0.03200
C1039       C  0.60765063  0.09978338  0.50058315    -0.12900
C1040       C  0.59517098  0.08574280  0.03269749     0.00700
C1041       C  0.56868825  0.06115305  0.03119578    -0.11500
C1042       C  0.55589021  0.04973977  0.99804957     0.03200
C1043       C  0.56875866  0.06359236  0.46604638    -0.10900
H1044       H  0.62790403  0.11907459  0.50173758     0.08800
H1045       H  0.55845690  0.05047434  0.05568394     0.06300
H1046       H  0.55948970  0.05390428  0.44054140     0.06200
O1047       O  0.78598818  0.27973461  0.30671898    -0.75200
O1048       O  0.75706594  0.24855813  0.34871738    -0.54100
C1049       C  0.77907660  0.27149470  0.33920624     0.78500
O1050       O  0.64617244  0.27778201  0.18901101    -0.59800
O1051       O  0.67419070  0.24403467  0.14847417    -0.52800
C1052       C  0.65222246  0.26730873  0.15684614     0.70500
O1053       O  0.65055647  0.28116666  0.31073911    -0.74400
O1054       O  0.68302432  0.25125013  0.35095972    -0.54900
C1055       C  0.66049148  0.27412854  0.34283196     0.76500
O1056       O  0.78341391  0.27566185  0.18558744    -0.59500
O1057       O  0.74846487  0.24682513  0.14623749    -0.52600
C1058       C  0.77254490  0.26850565  0.15373274     0.73100
Zr1059     Zr  0.76896366  0.25961365  0.24707539     2.54700
O1060       O  0.77312113  0.32175590  0.24571026    -0.80100
O1061       O  0.83170792  0.25227709  0.24614892    -0.93500
Zr1062     Zr  0.66512149  0.26278869  0.24980551     2.64700
O1063       O  0.66835190  0.32504454  0.24996088    -0.98400
O1064       O  0.60206351  0.26461705  0.25089351    -0.80500
O1065       O  0.71807031  0.26251181  0.28250396    -0.83900
O1066       O  0.71604909  0.26161436  0.21448128    -2.18600
O1067       O  0.78288297  0.14102897  0.18803578    -0.67300
O1068       O  0.75214916  0.17305364  0.14819196    -0.51800
C1069       C  0.77507914  0.15050711  0.15605458     0.71500
O1070       O  0.64801248  0.14328878  0.31216349    -0.60200
O1071       O  0.68111055  0.17397846  0.35179566    -0.52100
C1072       C  0.65811867  0.15120966  0.34404179     0.73300
O1073       O  0.64339409  0.14267471  0.19107775    -0.71600
O1074       O  0.67555489  0.17112672  0.14953244    -0.50200
C1075       C  0.65212857  0.14952272  0.15866526     0.74700
O1076       O  0.78121015  0.13887005  0.30904095    -0.66900
O1077       O  0.75472126  0.17370851  0.34970165    -0.54100
C1078       C  0.77489070  0.14886673  0.34124247     0.73100
Zr1079     Zr  0.76551831  0.15737402  0.24868236     2.77500
O1080       O  0.76138055  0.09513632  0.24729443    -0.97600
O1081       O  0.82865986  0.15723354  0.25014127    -0.78500
Zr1082     Zr  0.66187511  0.16069621  0.25109243     2.70100
O1083       O  0.65675359  0.09855003  0.25095119    -0.79700
O1084       O  0.59926367  0.16761042  0.25381261    -0.98800
Zr1085     Zr  0.71734775  0.21141671  0.31661272     2.21500
Zr1086     Zr  0.71359921  0.20908697  0.18210082     2.11100
O1087       O  0.71283927  0.15759588  0.21571545    -2.47500
O1088       O  0.71461442  0.15904327  0.28406764    -0.79500
O1089       O  0.76712710  0.20790055  0.21356901    -0.71700
O1090       O  0.66366665  0.21229786  0.28493269    -2.32700
O1091       O  0.76903018  0.20913287  0.28219850    -2.28900
O1092       O  0.66176135  0.21115267  0.21612106    -0.73500
H1093       H  0.71599665  0.28103561  0.19862298     0.78500
H1094       H  0.64429409  0.21299291  0.30122744     0.79600
H1095       H  0.71198133  0.13775368  0.20020070     0.81900
H1096       H  0.78931984  0.20879228  0.29742192     0.79500
H1097       H  0.59540541  0.24871465  0.27021825     0.42500
H1098       H  0.59360382  0.18273131  0.23346168     0.41500
H1099       H  0.67847126  0.09052719  0.26232209     0.41100
H1100       H  0.74622009  0.08978026  0.22656588     0.39100
H1101       H  0.83552031  0.17462318  0.23233275     0.42200
H1102       H  0.83809108  0.24593791  0.27090970     0.37000
H1103       H  0.74871973  0.32958033  0.24575633     0.43100
H1104       H  0.67943227  0.33096860  0.22697554     0.39500
H1105       H  0.78470077  0.08736891  0.23987935     0.44400
H1106       H  0.84105424  0.27572206  0.24321333     0.43200
H1107       H  0.64397796  0.33252909  0.24719562     0.43300
H1108       H  0.58985098  0.14494322  0.24673659     0.43700
C1109       C  0.58688348  0.11448636  0.09123791    -0.26200
C1110       C  0.60924773  0.09764129  0.06744178    -0.14300
C1111       C  0.64500503  0.09531010  0.07585682     0.36300
C1112       C  0.65765717  0.11197954  0.10639692    -0.25700
C1113       C  0.63563507  0.13020428  0.12930852    -0.14900
C1114       C  0.59959678  0.13118652  0.12192971     0.37400
N1115       N  0.57543298  0.14994144  0.14368655    -0.89200
H1116       H  0.55948690  0.11624338  0.08489949     0.18500
H1117       H  0.68522583  0.11091053  0.11218659     0.18500
N1118       N  0.66925751  0.07662401  0.05410032    -0.88200
H1119       H  0.56447901  0.16902095  0.12775591     0.35900
H1120       H  0.58770376  0.16258935  0.16485719     0.41000
H1121       H  0.65685147  0.06333594  0.03342234     0.40600
H1122       H  0.68049763  0.05782162  0.07017996     0.35500
C1123       C  0.64567689  0.09911029  0.42824413    -0.26200
C1124       C  0.60991413  0.10288978  0.43402381    -0.14300
C1125       C  0.58990851  0.12157873  0.40908782     0.36300
C1126       C  0.60601549  0.13620440  0.37933555    -0.25700
C1127       C  0.64186369  0.13317564  0.37417250    -0.14900
C1128       C  0.66190870  0.11408526  0.39856273     0.37400
N1129       N  0.69840145  0.10921936  0.39259191    -0.89200
H1130       H  0.66102011  0.08466826  0.44722217     0.18500
H1131       H  0.59061548  0.15101575  0.36071664     0.18500
N1132       N  0.55362002  0.12756649  0.41416096    -0.88200
H1133       H  0.70890864  0.09294914  0.41189378     0.35900
H1134       H  0.71071190  0.13286260  0.39612482     0.41000
H1135       H  0.55011253  0.13901013  0.43921852     0.40600
H1136       H  0.54052707  0.10414758  0.41363104     0.35500
C1137       C  0.81880496  0.13842945  0.06652580    -0.26200
C1138       C  0.82327715  0.10276254  0.06523765    -0.14300
C1139       C  0.81382577  0.08290454  0.09514937     0.36300
C1140       C  0.79970799  0.09920391  0.12544519    -0.25700
C1141       C  0.79368264  0.13463812  0.12578381    -0.14900
C1142       C  0.80381719  0.15452317  0.09619878     0.37400
N1143       N  0.79869317  0.19100621  0.09632651    -0.89200
H1144       H  0.82664460  0.15383835  0.04393189     0.18500
H1145       H  0.79177380  0.08400670  0.14815471     0.18500
N1146       N  0.81723642  0.04627340  0.09414553    -0.88200
H1147       H  0.80708928  0.20177643  0.07232888     0.35900
H1148       H  0.81430625  0.20141968  0.11658003     0.41000
H1149       H  0.80050391  0.03695661  0.07425799     0.40600
H1150       H  0.80903843  0.03554410  0.11823038     0.35500
C1151       C  0.81051671  0.08130227  0.40451172    -0.26200
C1152       C  0.82299935  0.10222463  0.43243954    -0.14300
C1153       C  0.82139726  0.13806808  0.42896266     0.36300
C1154       C  0.80566690  0.15230911  0.39891584    -0.25700
C1155       C  0.79269049  0.13168920  0.37116049    -0.14900
C1156       C  0.79538518  0.09571609  0.37370028     0.37400
N1157       N  0.78085811  0.07401359  0.34629235    -0.89200
H1158       H  0.81157469  0.05372874  0.40728123     0.18500
H1159       H  0.80336557  0.17981601  0.39741937     0.18500
N1160       N  0.83593819  0.16016915  0.45587649    -0.88200
H1161       H  0.78282954  0.04828614  0.35357567     0.35900
H1162       H  0.79601528  0.07685813  0.32340441     0.41000
H1163       H  0.85466448  0.17564631  0.44383116     0.40600
H1164       H  0.81623612  0.17606479  0.46545898     0.35500
C1165       C  0.60725469  0.27926737  0.06751975    -0.26200
C1166       C  0.60380576  0.31501748  0.06619162    -0.14300
C1167       C  0.61383546  0.33491202  0.09625066     0.36300
C1168       C  0.62783659  0.31862086  0.12652515    -0.25700
C1169       C  0.63296068  0.28308460  0.12690872    -0.14900
C1170       C  0.62177675  0.26310083  0.09741697     0.37400
N1171       N  0.62538619  0.22644984  0.09788593    -0.89200
H1172       H  0.59896300  0.26387887  0.04482995     0.18500
H1173       H  0.63646750  0.33389684  0.14916281     0.18500
N1174       N  0.61117220  0.37160179  0.09541303    -0.88200
H1175       H  0.61598859  0.21555223  0.07413721     0.35900
H1176       H  0.60978662  0.21713228  0.11846474     0.41000
H1177       H  0.62809091  0.38046826  0.07572964     0.40600
H1178       H  0.61956107  0.38233127  0.11963222     0.35500
C1179       C  0.64867086  0.31951287  0.43186039    -0.26200
C1180       C  0.61247331  0.32334532  0.43313072    -0.14300
C1181       C  0.59228197  0.31313285  0.40324107     0.36300
C1182       C  0.60872831  0.29879062  0.37313346    -0.25700
C1183       C  0.64468684  0.29331799  0.37283317    -0.14900
C1184       C  0.66495636  0.30443105  0.40222419     0.37400
N1185       N  0.70199839  0.30018154  0.40192970    -0.89200
H1186       H  0.66429280  0.32781226  0.45446990     0.18500
H1187       H  0.59321742  0.29017559  0.35056934     0.18500
N1188       N  0.55512582  0.31591801  0.40413313    -0.88200
H1189       H  0.71307480  0.30948425  0.42564813     0.35900
H1190       H  0.71180691  0.31524763  0.38127313     0.41000
H1191       H  0.54610250  0.29956235  0.42410201     0.40600
H1192       H  0.54420582  0.30726966  0.38007994     0.35500
C1193       C  0.83832175  0.30873643  0.09123804    -0.26200
C1194       C  0.81691774  0.31940093  0.06293963    -0.14300
C1195       C  0.78062178  0.31489927  0.06561954     0.36300
C1196       C  0.76683659  0.29804386  0.09545080    -0.25700
C1197       C  0.78835049  0.28673097  0.12332890    -0.14900
C1198       C  0.82441494  0.29245773  0.12142614     0.37400
N1199       N  0.84687359  0.28076302  0.14957364    -0.89200
H1200       H  0.86614319  0.31207355  0.08923382     0.18500
H1201       H  0.73905268  0.29412884  0.09722904     0.18500
N1202       N  0.75789846  0.32777419  0.03824817    -0.88200
H1203       H  0.87267094  0.28709106  0.14413443     0.35900
H1204       H  0.84549750  0.25402972  0.14997057     0.41000
H1205       H  0.76034627  0.35443922  0.03814060     0.40600
H1206       H  0.73200688  0.32236742  0.04427576     0.35900
C1207       C  0.83430157  0.28693409  0.42130426    -0.26200
C1208       C  0.82528345  0.32065411  0.43005626    -0.14300
C1209       C  0.80365983  0.33946331  0.40660218     0.36300
C1210       C  0.79048283  0.32333249  0.37577378    -0.25700
C1211       C  0.79817660  0.28902398  0.36809302    -0.14900
C1212       C  0.82155704  0.27106768  0.39031259     0.37400
N1213       N  0.83290765  0.23684077  0.38235557    -0.89200
H1214       H  0.85124679  0.27266471  0.43895632     0.18500
H1215       H  0.77286144  0.33724096  0.35852779     0.18500
N1216       N  0.79362888  0.37430858  0.41360508    -0.88200
H1217       H  0.85984454  0.23757234  0.37937301     0.35900
H1218       H  0.82305816  0.22804044  0.35794455     0.41000
H1219       H  0.80433606  0.38368415  0.43737368     0.40600
H1220       H  0.76672686  0.37462500  0.41695763     0.35500
C1221       C  0.83751307  0.33423768  0.96504712     0.03200
C1222       C  0.86344652  0.35928265  0.96744761    -0.12900
C1223       C  0.87463209  0.37127904  0.50030833     0.00700
C1224       C  0.85936150  0.35888028  0.53176447    -0.11500
C1225       C  0.83291854  0.33400393  0.52998099     0.03200
C1226       C  0.82290099  0.32106090  0.99632221    -0.10900
H1227       H  0.87510100  0.36925215  0.94331266     0.08800
H1228       H  0.86785143  0.36884480  0.55745347     0.06300
H1229       H  0.80365114  0.30086816  0.99424039     0.06200
C1230       C  0.59578655  0.33504878  0.96715541     0.03200
C1231       C  0.60631145  0.32047308  0.99968789    -0.12900
C1232       C  0.59184561  0.33126185  0.53208215     0.00700
C1233       C  0.56607343  0.35658340  0.53181554    -0.11500
C1234       C  0.55578252  0.37177084  0.49956648     0.03200
C1235       C  0.57046158  0.36081505  0.96754408    -0.10900
H1236       H  0.62609014  0.30081607  0.99962240     0.08800
H1237       H  0.55386784  0.36442068  0.55657363     0.06300
H1238       H  0.56255603  0.37293320  0.94284548     0.06200
C1239       C  0.83506725  0.08642141  0.96613443     0.03200
C1240       C  0.82189569  0.09813510  0.99882478    -0.12900
C1241       C  0.83593649  0.08710221  0.53140992     0.00700
C1242       C  0.86209612  0.06217222  0.53113262    -0.11500
C1243       C  0.87427774  0.04891038  0.49855149     0.03200
C1244       C  0.86105483  0.06145858  0.96602275    -0.10900
H1245       H  0.80087595  0.11650767  0.99882267     0.08800
H1246       H  0.87334314  0.05335884  0.55600941     0.06300
H1247       H  0.87117346  0.05188534  0.94090344     0.06200
N1248       N  0.96540497  0.40803712  0.50308600    -0.36500
N1249       N  0.51882772  0.46084798  0.49732806    -0.57100
N1250       N  0.96477088  0.01288630  0.49398052    -0.36500
N1251       N  0.91149586  0.46035500  0.50106154    -0.57100
C1252       C  0.99364932  0.38801325  0.49813633     0.27100
C1253       C  0.93700659  0.38777505  0.49930874     0.27100
C1254       C  0.99307931  0.03336961  0.49682061     0.27100
C1255       C  0.93648967  0.03303552  0.49791041     0.27100
C1256       C  0.53979076  0.43326247  0.49951128     0.35700
C1257       C  0.53967755  0.48869710  0.49676586     0.35700
C1258       C  0.89064989  0.43260480  0.50317416     0.35700
C1259       C  0.89053933  0.48798117  0.50014499     0.35700
C1260       C  0.98305643  0.35452577  0.49195709    -0.21800
C1261       C  0.94744598  0.35436759  0.49272054    -0.21800
C1262       C  0.98254380  0.06704491  0.50141291    -0.21800
C1263       C  0.94696048  0.06683741  0.50204529    -0.21800
C1264       C  0.57419426  0.44366381  0.50029137    -0.22900
C1265       C  0.57413242  0.47870601  0.49844940    -0.22900
C1266       C  0.85619242  0.44269458  0.50381259    -0.22900
C1267       C  0.85612270  0.47771510  0.50185541    -0.22900
C1268       C  0.52867119  0.39869264  0.49970987    -0.18200
C1269       C  0.90185036  0.39816570  0.50198641    -0.18200
C1270       C  0.90139151  0.02215182  0.49831688    -0.18200
C1271       C  0.52824850  0.02302948  0.49648719    -0.18200
H1272       H  0.99929251  0.33240469  0.48725300     0.14700
H1273       H  0.93112725  0.33207103  0.48874366     0.14700
H1274       H  0.49880809  0.08965520  0.50513989     0.14700
H1275       H  0.93069122  0.08908813  0.50584604     0.14700
H1276       H  0.59702525  0.42769003  0.50199161     0.13000
H1277       H  0.59691153  0.49496518  0.49881547     0.13000
H1278       H  0.83338722  0.42651561  0.50486111     0.13000
H1279       H  0.83327379  0.49375080  0.50161017     0.13000
H1280       H  0.96561305  0.43328228  0.51170302     0.26200
H1281       H  0.96500015  0.48715045  0.48944020     0.26200
C1282       C  0.59530094  0.08853942  0.96755894     0.03200
C1283       C  0.60797778  0.09969249  0.00086420    -0.12900
C1284       C  0.59480594  0.08587860  0.53245779     0.00700
C1285       C  0.56813917  0.06148366  0.53093815    -0.11500
C1286       C  0.55525578  0.05011633  0.49780907     0.03200
C1287       C  0.56947938  0.06314922  0.96631435    -0.10900
H1288       H  0.62803119  0.11918792  0.00204698     0.08800
H1289       H  0.55792867  0.05077822  0.55542157     0.06300
H1290       H  0.56036910  0.05331352  0.94081394     0.06200
O1291       O  0.78632171  0.28018540  0.80637855    -0.75200
O1292       O  0.75719927  0.24932548  0.84847691    -0.54100
C1293       C  0.77939272  0.27210159  0.83890272     0.78500
O1294       O  0.64559405  0.27750955  0.68888217    -0.59800
O1295       O  0.67340374  0.24359861  0.64834381    -0.52800
C1296       C  0.65150522  0.26694819  0.65671484     0.70500
O1297       O  0.65043802  0.28153973  0.81062913    -0.74400
O1298       O  0.68266760  0.25147440  0.85096206    -0.54900
C1299       C  0.66022964  0.27443617  0.84276586     0.76500
O1300       O  0.78347932  0.27607438  0.68567339    -0.59500
O1301       O  0.74848016  0.24724845  0.64636652    -0.52600
C1302       C  0.77262735  0.26890745  0.65383724     0.73100
Zr1303     Zr  0.76866831  0.25996160  0.74697435     2.54700
O1304       O  0.77276561  0.32210481  0.74577231    -0.80100
O1305       O  0.83144798  0.25308372  0.74542596    -0.93500
Zr1306     Zr  0.66466588  0.26265900  0.74971771     2.64700
O1307       O  0.66670791  0.32496287  0.74877014    -0.98400
O1308       O  0.60155769  0.26331630  0.75105996    -0.80500
O1309       O  0.71770981  0.26275462  0.78237247    -0.83900
O1310       O  0.71565827  0.26173544  0.71440876    -2.18600
O1311       O  0.78217284  0.14094386  0.68775699    -0.67300
O1312       O  0.75179816  0.17331132  0.64789991    -0.51800
C1313       C  0.77442768  0.15048855  0.65575645     0.71500
O1314       O  0.64865233  0.14289760  0.81241250    -0.60200
O1315       O  0.68133450  0.17409138  0.85199658    -0.52100
C1316       C  0.65862818  0.15100836  0.84429935     0.73300
O1317       O  0.64405875  0.14203241  0.69116961    -0.71600
O1318       O  0.67609313  0.17040840  0.64946719    -0.50200
C1319       C  0.65280243  0.14868058  0.65869472     0.74700
O1320       O  0.78069905  0.13860225  0.80901376    -0.66900
O1321       O  0.75492347  0.17398778  0.84967440    -0.54100
C1322       C  0.77465549  0.14877762  0.84121675     0.73100
Zr1323     Zr  0.76571326  0.15777118  0.74866884     2.77500
O1324       O  0.76275813  0.09546345  0.74755089    -0.97600
O1325       O  0.82885726  0.15887427  0.75035683    -0.78500
Zr1326     Zr  0.66212186  0.16053176  0.75124277     2.70100
O1327       O  0.65813455  0.09831498  0.75085631    -0.79700
O1328       O  0.59936468  0.16617141  0.75385340    -0.98800
Zr1329     Zr  0.71736330  0.21178304  0.81674067     2.21500
Zr1330     Zr  0.71341465  0.20921699  0.68199259     2.11100
O1331       O  0.71302118  0.15781866  0.71582012    -2.47500
O1332       O  0.71487833  0.15940532  0.78415795    -0.79500
O1333       O  0.76701848  0.20823722  0.71343197    -0.71700
O1334       O  0.66362065  0.21223717  0.78502845    -2.32700
O1335       O  0.76901651  0.20955216  0.78223415    -2.28900
O1336       O  0.66158833  0.21094483  0.71612629    -0.73500
H1337       H  0.71551941  0.28111857  0.69850174     0.78500
H1338       H  0.64426305  0.21284514  0.80134904     0.79600
H1339       H  0.71227266  0.13790692  0.70040267     0.81900
H1340       H  0.78931779  0.20927588  0.79744325     0.79500
H1341       H  0.59520592  0.24596019  0.76908676     0.42500
H1342       H  0.59354363  0.18203824  0.73418489     0.41500
H1343       H  0.67838694  0.09071973  0.76507762     0.41100
H1344       H  0.74681710  0.08979060  0.72754574     0.39100
H1345       H  0.83546048  0.17565662  0.73182732     0.42200
H1346       H  0.83782063  0.24448966  0.76941900     0.37000
H1347       H  0.75031703  0.32960260  0.73558753     0.43100
H1348       H  0.68036857  0.33065976  0.72724694     0.39500
H1349       H  0.78587762  0.08809209  0.73910357     0.44400
H1350       H  0.84065932  0.27676236  0.74493333     0.43200
H1351       H  0.64271724  0.33189774  0.74272171     0.43300
H1352       H  0.59042319  0.14365634  0.74566023     0.43700
C1353       C  0.58704022  0.11385802  0.59157929    -0.26200
C1354       C  0.60918504  0.09738123  0.56728634    -0.14300
C1355       C  0.64497877  0.09480615  0.57546301     0.36300
C1356       C  0.65794126  0.11122752  0.60606766    -0.25700
C1357       C  0.63614312  0.12928919  0.62938510    -0.14900
C1358       C  0.60001946  0.13020669  0.62237938     0.37400
N1359       N  0.57598870  0.14862059  0.64461206    -0.89200
H1360       H  0.55958152  0.11565069  0.58555590     0.18500
H1361       H  0.68555425  0.11008188  0.61158920     0.18500
N1362       N  0.66893582  0.07603013  0.55344022    -0.88200
H1363       H  0.56472057  0.16776095  0.62899982     0.35900
H1364       H  0.58838234  0.16119599  0.66574549     0.41000
H1365       H  0.65627595  0.06290316  0.53281006     0.40600
H1366       H  0.68012336  0.05706885  0.56935387     0.35500
C1367       C  0.64639211  0.09954619  0.92906333    -0.26200
C1368       C  0.61049474  0.10261550  0.93436700    -0.14300
C1369       C  0.59037882  0.12070545  0.90905409     0.36300
C1370       C  0.60648412  0.13524185  0.87924770    -0.25700
C1371       C  0.64245840  0.13291552  0.87450528    -0.14900
C1372       C  0.66264934  0.11461223  0.89945300     0.37400
N1373       N  0.69935797  0.11067352  0.89418042    -0.89200
H1374       H  0.66183162  0.08564046  0.94839974     0.18500
H1375       H  0.59096560  0.14953540  0.86029356     0.18500
N1376       N  0.55398042  0.12629775  0.91384167    -0.88200
H1377       H  0.70999685  0.09491159  0.91386799     0.35900
H1378       H  0.71094452  0.13467488  0.89766358     0.41000
H1379       H  0.55017571  0.13792110  0.93876393     0.40600
H1380       H  0.54114371  0.10274420  0.91343064     0.35500
C1381       C  0.81913296  0.13840522  0.56672352    -0.26200
C1382       C  0.82305853  0.10267879  0.56516833    -0.14300
C1383       C  0.81259170  0.08269423  0.59461477     0.36300
C1384       C  0.79811237  0.09893531  0.62476768    -0.25700
C1385       C  0.79285540  0.13448582  0.62544481    -0.14900
C1386       C  0.80379959  0.15446673  0.59623240     0.37400
N1387       N  0.79914846  0.19101473  0.59656775    -0.89200
H1388       H  0.82764617  0.15388470  0.54444185     0.18500
H1389       H  0.78944880  0.08366277  0.64713517     0.18500
N1390       N  0.81546883  0.04602516  0.59329838    -0.88200
H1391       H  0.80814326  0.20185964  0.57283955     0.35900
H1392       H  0.81449811  0.20108172  0.61721838     0.41000
H1393       H  0.79909529  0.03713958  0.57288764     0.40600
H1394       H  0.80651974  0.03519124  0.61704306     0.35500
C1395       C  0.80935000  0.08087504  0.90477005    -0.26200
C1396       C  0.82230879  0.10176071  0.93249433    -0.14300
C1397       C  0.82135860  0.13757920  0.92878833     0.36300
C1398       C  0.80578812  0.15191717  0.89871038    -0.25700
C1399       C  0.79231083  0.13138933  0.87113555    -0.14900
C1400       C  0.79443167  0.09537411  0.87387273     0.37400
N1401       N  0.77968336  0.07375623  0.84652013    -0.89200
H1402       H  0.80999378  0.05330413  0.90771613     0.18500
H1403       H  0.80398322  0.17943616  0.89706010     0.18500
N1404       N  0.83639707  0.15954778  0.95552869    -0.88200
H1405       H  0.78132112  0.04803225  0.85390837     0.35900
H1406       H  0.79493366  0.07633509  0.82366113     0.41000
H1407       H  0.85538856  0.17459801  0.94333781     0.40600
H1408       H  0.81703276  0.17585886  0.96508014     0.35500
C1409       C  0.60637610  0.27937062  0.56744638    -0.26200
C1410       C  0.60367044  0.31518516  0.56597559    -0.14300
C1411       C  0.61435800  0.33499325  0.59582888     0.36300
C1412       C  0.62800251  0.31854159  0.62618724    -0.25700
C1413       C  0.63233013  0.28289413  0.62677467    -0.14900
C1414       C  0.62072532  0.26302693  0.59736020     0.37400
N1415       N  0.62383507  0.22633255  0.59787511    -0.89200
H1416       H  0.59773985  0.26408642  0.54481343     0.18500
H1417       H  0.63708554  0.33374882  0.64868811     0.18500
N1418       N  0.61281886  0.37173721  0.59462489    -0.88200
H1419       H  0.61421748  0.21553739  0.57416771     0.35900
H1420       H  0.60817949  0.21724480  0.61852041     0.41000
H1421       H  0.62990307  0.37989460  0.57475535     0.40600
H1422       H  0.62169244  0.38242723  0.61868004     0.35500
C1423       C  0.64810401  0.31947735  0.93193748    -0.26200
C1424       C  0.61189285  0.32306852  0.93322162    -0.14300
C1425       C  0.59176907  0.31297853  0.90323413     0.36300
C1426       C  0.60832258  0.29889002  0.87305019    -0.25700
C1427       C  0.64431682  0.29357835  0.87276127    -0.14900
C1428       C  0.66449396  0.30462910  0.90224938     0.37400
N1429       N  0.70154953  0.30047955  0.90204618    -0.89200
H1430       H  0.66366797  0.32776101  0.95459599     0.18500
H1431       H  0.59287675  0.29032089  0.85042060     0.18500
N1432       N  0.55459982  0.31566239  0.90407239    -0.88200
H1433       H  0.71252703  0.30964524  0.92587190     0.35900
H1434       H  0.71140659  0.31569882  0.88153445     0.41000
H1435       H  0.54557569  0.29916585  0.92391377     0.40600
H1436       H  0.54374747  0.30713790  0.87993888     0.35500
C1437       C  0.83848215  0.30880829  0.59101991    -0.26200
C1438       C  0.81697188  0.31996709  0.56301205    -0.14300
C1439       C  0.78064418  0.31589518  0.56604423     0.36300
C1440       C  0.76690505  0.29900721  0.59588733    -0.25700
C1441       C  0.78848955  0.28716637  0.62344184    -0.14900
C1442       C  0.82462199  0.29247653  0.62123585     0.37400
N1443       N  0.84717413  0.28034353  0.64909811    -0.89200
H1444       H  0.86632449  0.31179183  0.58874866     0.18500
H1445       H  0.73909172  0.29544387  0.59791721     0.18500
N1446       N  0.75783276  0.32917356  0.53897114    -0.88200
H1447       H  0.87300371  0.28634634  0.64342318     0.35900
H1448       H  0.84543518  0.25362951  0.64937968     0.41000
H1449       H  0.76056948  0.35581205  0.53901834     0.40600
H1450       H  0.73193759  0.32400193  0.54520199     0.35900
C1451       C  0.83440696  0.28690755  0.92134695    -0.26200
C1452       C  0.82593091  0.32079135  0.92999787    -0.14300
C1453       C  0.80482130  0.33991840  0.90630817     0.36300
C1454       C  0.79171454  0.32399263  0.87529652    -0.25700
C1455       C  0.79877052  0.28950449  0.86776875    -0.14900
C1456       C  0.82161344  0.27120080  0.89027738     0.37400
N1457       N  0.83228966  0.23671244  0.88259049    -0.89200
H1458       H  0.85090347  0.27234722  0.93918738     0.18500
H1459       H  0.77446029  0.33816739  0.85789770     0.18500
N1460       N  0.79503692  0.37482997  0.91335055    -0.88200
H1461       H  0.85927601  0.23682066  0.88002664     0.35900
H1462       H  0.82261199  0.22807637  0.85804506     0.41000
H1463       H  0.80540490  0.38396612  0.93737321     0.40600
H1464       H  0.76808759  0.37538579  0.91625154     0.35500
C1465       C  0.83686453  0.83434504  0.46477847     0.03200
C1466       C  0.86314439  0.85902844  0.46691440    -0.12900
C1467       C  0.87435525  0.87149669  0.00066488     0.00700
C1468       C  0.85897296  0.85909147  0.03202374    -0.11500
C1469       C  0.83299945  0.83376462  0.03012994     0.03200
C1470       C  0.82236297  0.82130678  0.49617197    -0.10900
H1471       H  0.87467825  0.86888050  0.44266256     0.08800
H1472       H  0.86707430  0.86933480  0.05772744     0.06300
H1473       H  0.80287839  0.80132207  0.49423625     0.06200
C1474       C  0.59615455  0.83504674  0.46734451     0.03200
C1475       C  0.60629078  0.82033458  0.49992501    -0.12900
C1476       C  0.59180390  0.83106080  0.03198998     0.00700
C1477       C  0.56587553  0.85620615  0.03177895    -0.11500
C1478       C  0.55553384  0.87142175  0.99958832     0.03200
C1479       C  0.57103010  0.86105365  0.46758671    -0.10900
H1480       H  0.62589451  0.80050453  0.49999328     0.08800
H1481       H  0.55361955  0.86394753  0.05653966     0.06300
H1482       H  0.56337399  0.87321557  0.44283225     0.06200
C1483       C  0.83541607  0.58658172  0.46621762     0.03200
C1484       C  0.82217165  0.59828568  0.49888508    -0.12900
C1485       C  0.83615534  0.58714439  0.03159331     0.00700
C1486       C  0.86258051  0.56249752  0.03124515    -0.11500
C1487       C  0.87486610  0.54939385  0.99864719     0.03200
C1488       C  0.86118659  0.56138360  0.46617943    -0.10900
H1489       H  0.80125546  0.61677087  0.49884818     0.08800
H1490       H  0.87395967  0.55376467  0.05608959     0.06300
H1491       H  0.87137472  0.55180877  0.44109152     0.06200
N1492       N  0.96514163  0.90812171  0.00385940    -0.36500
N1493       N  0.51897349  0.96057517  0.99787765    -0.57100
N1494       N  0.96527245  0.51305979  0.99443989    -0.36500
N1495       N  0.91137357  0.96057993  0.00096880    -0.57100
C1496       C  0.99335695  0.88785139  0.00000807     0.27100
C1497       C  0.93671280  0.88776572  0.00118619     0.27100
C1498       C  0.99367941  0.53340495  0.99727358     0.27100
C1499       C  0.93707227  0.53336109  0.99805118     0.27100
C1500       C  0.53984069  0.93290627  0.99962604     0.35700
C1501       C  0.53992574  0.98832676  0.99701284     0.35700
C1502       C  0.89041469  0.93286800  0.00261714     0.35700
C1503       C  0.89049349  0.98822068  0.99924829     0.35700
C1504       C  0.98270229  0.85409985  0.99587748    -0.21800
C1505       C  0.94710252  0.85404045  0.99664887    -0.21800
C1506       C  0.98329881  0.56717497  0.00148307    -0.21800
C1507       C  0.94769575  0.56714997  0.00191764    -0.21800
C1508       C  0.57430291  0.94315265  0.99985045    -0.22900
C1509       C  0.57436048  0.97820009  0.99813158    -0.22900
C1510       C  0.85597154  0.94301004  0.00216934    -0.22900
C1511       C  0.85602022  0.97801584  0.00001508    -0.22900
C1512       C  0.52855932  0.89840393  0.99987821    -0.18200
C1513       C  0.90155311  0.89838625  0.00250312    -0.18200
C1514       C  0.90192758  0.52259300  0.99841026    -0.18200
C1515       C  0.52865767  0.52265611  0.99684021    -0.18200
H1516       H  0.99887742  0.83174671  0.99230204     0.14700
H1517       H  0.93075131  0.83161217  0.99383261     0.14700
H1518       H  0.49946397  0.58937262  0.00559399     0.14700
H1519       H  0.93151214  0.58950863  0.00540198     0.14700
H1520       H  0.59709201  0.92707531  0.00101716     0.13000
H1521       H  0.59720656  0.99436554  0.99803330     0.13000
H1522       H  0.83311755  0.92687405  0.00281405     0.13000
H1523       H  0.83321355  0.99409111  0.99915851     0.13000
H1524       H  0.96536465  0.93387143  0.01045393     0.26200
H1525       H  0.96493723  0.98754610  0.98761216     0.26200
C1526       C  0.59533155  0.58841626  0.46723981     0.03200
C1527       C  0.60821742  0.59948174  0.50053544    -0.12900
C1528       C  0.59487642  0.58590317  0.03273901     0.00700
C1529       C  0.56847363  0.56122466  0.03128748    -0.11500
C1530       C  0.55575312  0.54964011  0.99816564     0.03200
C1531       C  0.56928594  0.56326181  0.46608612    -0.10900
H1532       H  0.62853294  0.61871112  0.50164013     0.08800
H1533       H  0.55826861  0.55057550  0.05580105     0.06300
H1534       H  0.56014472  0.55337717  0.44061553     0.06200
O1535       O  0.78599389  0.77970288  0.30665523    -0.75200
O1536       O  0.75712669  0.74858245  0.34873470    -0.54100
C1537       C  0.77915290  0.77146542  0.33914541     0.78500
O1538       O  0.64618965  0.77796808  0.18882151    -0.59800
O1539       O  0.67398212  0.74392513  0.14838431    -0.52800
C1540       C  0.65212547  0.76734388  0.15667523     0.70500
O1541       O  0.65073197  0.78150132  0.31068389    -0.74400
O1542       O  0.68286782  0.75127484  0.35096271    -0.54900
C1543       C  0.66049053  0.77429899  0.34281656     0.76500
O1544       O  0.78339061  0.77608916  0.18571208    -0.59500
O1545       O  0.74878746  0.74695673  0.14629561    -0.52600
C1546       C  0.77270434  0.76881042  0.15384704     0.73100
Zr1547     Zr  0.76892173  0.75976536  0.24702783     2.54700
O1548       O  0.77443205  0.82180291  0.24559913    -0.80100
O1549       O  0.83167670  0.75280767  0.24572767    -0.93500
Zr1550     Zr  0.66504853  0.76284837  0.24967366     2.64700
O1551       O  0.66780701  0.82513166  0.24946599    -0.98400
O1552       O  0.60194243  0.76351727  0.25038912    -0.80500
O1553       O  0.71798804  0.76264531  0.28243488    -0.83900
O1554       O  0.71601648  0.76177101  0.21437740    -2.18600
O1555       O  0.78302155  0.64107575  0.18820600    -0.67300
O1556       O  0.75197323  0.67273752  0.14827608    -0.51800
C1557       C  0.77499938  0.65030100  0.15620483     0.71500
O1558       O  0.64802333  0.64321289  0.31204679    -0.60200
O1559       O  0.68078232  0.67422973  0.35170238    -0.52100
C1560       C  0.65793698  0.65130975  0.34393330     0.73300
O1561       O  0.64353754  0.64276372  0.19111302    -0.71600
O1562       O  0.67576080  0.67107645  0.14951955    -0.50200
C1563       C  0.65228376  0.64953054  0.15868553     0.74700
O1564       O  0.78154736  0.63912625  0.30907015    -0.66900
O1565       O  0.75492462  0.67384985  0.34975024    -0.54100
C1566       C  0.77518510  0.64906197  0.34127576     0.73100
Zr1567     Zr  0.76569789  0.65760475  0.24877580     2.77500
O1568       O  0.76141998  0.59539044  0.24755036    -0.97600
O1569       O  0.82883291  0.65732091  0.25024084    -0.78500
Zr1570     Zr  0.66214844  0.66067985  0.25110056     2.70100
O1571       O  0.65872828  0.59843122  0.25055339    -0.79700
O1572       O  0.59943363  0.66639156  0.25428284    -0.98800
Zr1573     Zr  0.71735688  0.71154275  0.31665680     2.21500
Zr1574     Zr  0.71370266  0.70920625  0.18202152     2.11100
O1575       O  0.71308587  0.65779474  0.21574636    -2.47500
O1576       O  0.71480506  0.65913649  0.28420122    -0.79500
O1577       O  0.76726184  0.70806201  0.21351798    -0.71700
O1578       O  0.66375229  0.71236083  0.28483772    -2.32700
O1579       O  0.76907907  0.70936074  0.28225312    -2.28900
O1580       O  0.66190303  0.71113381  0.21609210    -0.73500
H1581       H  0.71595337  0.78118823  0.19851276     0.78500
H1582       H  0.64434926  0.71303062  0.30109630     0.79600
H1583       H  0.71227611  0.63793021  0.20026202     0.81900
H1584       H  0.78936381  0.70905692  0.29748243     0.79500
H1585       H  0.59550131  0.74914341  0.27105197     0.42500
H1586       H  0.59363709  0.68343903  0.23571957     0.41500
H1587       H  0.68253321  0.59084847  0.24474909     0.41100
H1588       H  0.74880288  0.58987088  0.22513144     0.39100
H1589       H  0.83570043  0.67638871  0.23441398     0.42200
H1590       H  0.83793279  0.74424901  0.26976609     0.37000
H1591       H  0.75025225  0.83018356  0.24670596     0.43100
H1592       H  0.67871263  0.83103059  0.22638200     0.39500
H1593       H  0.78542390  0.58751254  0.24319923     0.44400
H1594       H  0.84089789  0.77648442  0.24525537     0.43200
H1595       H  0.64336503  0.83243628  0.24681991     0.43300
H1596       H  0.59034811  0.64444016  0.24468979     0.43700
C1597       C  0.58674525  0.61406298  0.09172403    -0.26200
C1598       C  0.60909048  0.59777124  0.06747227    -0.14300
C1599       C  0.64495092  0.59581740  0.07551235     0.36300
C1600       C  0.65772073  0.61251957  0.10597847    -0.25700
C1601       C  0.63570845  0.63021820  0.12934517    -0.14900
C1602       C  0.59955452  0.63062479  0.12247829     0.37400
N1603       N  0.57532817  0.64866598  0.14481857    -0.89200
H1604       H  0.55925149  0.61545573  0.08574863     0.18500
H1605       H  0.68536792  0.61178773  0.11141591     0.18500
N1606       N  0.66918240  0.57737790  0.05350114    -0.88200
H1607       H  0.56382469  0.66774133  0.12930016     0.35900
H1608       H  0.58760371  0.66129629  0.16599187     0.41000
H1609       H  0.65669662  0.56383396  0.03305650     0.40600
H1610       H  0.68084561  0.55876090  0.06949840     0.35500
C1611       C  0.64607949  0.59913017  0.42812464    -0.26200
C1612       C  0.61028537  0.60249214  0.43391720    -0.14300
C1613       C  0.59000239  0.62081542  0.40890095     0.36300
C1614       C  0.60591992  0.63564902  0.37915031    -0.25700
C1615       C  0.64182070  0.63313322  0.37404916    -0.14900
C1616       C  0.66209990  0.61428526  0.39843459     0.37400
N1617       N  0.69865212  0.60988322  0.39246471    -0.89200
H1618       H  0.66161824  0.58490842  0.44711675     0.18500
H1619       H  0.59032007  0.65020489  0.36048657     0.18500
N1620       N  0.55360206  0.62623470  0.41388027    -0.88200
H1621       H  0.70935681  0.59368020  0.41171206     0.35900
H1622       H  0.71066025  0.63366325  0.39609876     0.41000
H1623       H  0.54981716  0.63751985  0.43897100     0.40600
H1624       H  0.54084150  0.60264407  0.41314804     0.35500
C1625       C  0.81908163  0.63834348  0.06691864    -0.26200
C1626       C  0.82336832  0.60265853  0.06544660    -0.14300
C1627       C  0.81364631  0.58269827  0.09521366     0.36300
C1628       C  0.79939205  0.59892378  0.12549511    -0.25700
C1629       C  0.79357696  0.63438908  0.12597173    -0.14900
C1630       C  0.80398676  0.65435976  0.09657247     0.37400
N1631       N  0.79899919  0.69086296  0.09686510    -0.89200
H1632       H  0.82715007  0.65383667  0.04447590     0.18500
H1633       H  0.79124262  0.58367417  0.14808677     0.18500
N1634       N  0.81698640  0.54606251  0.09410298    -0.88200
H1635       H  0.80759043  0.70172140  0.07298681     0.35900
H1636       H  0.81450668  0.70112834  0.11728773     0.41000
H1637       H  0.80037616  0.53684057  0.07406090     0.40600
H1638       H  0.80860332  0.53526955  0.11808949     0.35500
C1639       C  0.81014877  0.58122128  0.40464097    -0.26200
C1640       C  0.82285902  0.60205115  0.43253297    -0.14300
C1641       C  0.82173982  0.63789607  0.42896002     0.36300
C1642       C  0.80625931  0.65227759  0.39883714    -0.25700
C1643       C  0.79297081  0.63176985  0.37115466    -0.14900
C1644       C  0.79523018  0.59576448  0.37377577     0.37400
N1645       N  0.78048235  0.57418799  0.34638429    -0.89200
H1646       H  0.81088241  0.55364211  0.40747337     0.18500
H1647       H  0.80429118  0.67979506  0.39727541     0.18500
N1648       N  0.83646238  0.65984965  0.45589828    -0.88200
H1649       H  0.78215982  0.54844887  0.35370187     0.35900
H1650       H  0.79568592  0.57684522  0.32350307     0.41000
H1651       H  0.85544306  0.67506306  0.44391063     0.40600
H1652       H  0.81693150  0.67600825  0.46537257     0.35500
C1653       C  0.60730758  0.77937851  0.06719148    -0.26200
C1654       C  0.60385956  0.81512706  0.06587101    -0.14300
C1655       C  0.61387982  0.83501063  0.09592980     0.36300
C1656       C  0.62785989  0.81871005  0.12622172    -0.25700
C1657       C  0.63292269  0.78315177  0.12665581    -0.14900
C1658       C  0.62176188  0.76318900  0.09712310     0.37400
N1659       N  0.62532408  0.72653260  0.09757566    -0.89200
H1660       H  0.59904613  0.76400634  0.04447685     0.18500
H1661       H  0.63648595  0.83399309  0.14885438     0.18500
N1662       N  0.61118279  0.87170042  0.09508663    -0.88200
H1663       H  0.61603118  0.71566843  0.07376652     0.35900
H1664       H  0.60961201  0.71720202  0.11806135     0.41000
H1665       H  0.62807017  0.88058674  0.07538370     0.40600
H1666       H  0.61957934  0.88243966  0.11929676     0.35500
C1667       C  0.64851272  0.81900626  0.43222692    -0.26200
C1668       C  0.61230986  0.82283460  0.43348542    -0.14300
C1669       C  0.59217080  0.81287393  0.40346618     0.36300
C1670       C  0.60865425  0.79873551  0.37326189    -0.25700
C1671       C  0.64463152  0.79338225  0.37289484    -0.14900
C1672       C  0.66485937  0.80432354  0.40239313     0.37400
N1673       N  0.70193461  0.80036210  0.40196929    -0.89200
H1674       H  0.66410662  0.82713097  0.45492502     0.18500
H1675       H  0.59316753  0.79024564  0.35063042     0.18500
N1676       N  0.55502472  0.81579909  0.40427391    -0.88200
H1677       H  0.71298590  0.80951778  0.42576155     0.35900
H1678       H  0.71158205  0.81571579  0.38146002     0.41000
H1679       H  0.54587237  0.79934186  0.42408819     0.40600
H1680       H  0.54413738  0.80737986  0.38011874     0.35500
C1681       C  0.83837984  0.80938836  0.09146130    -0.26200
C1682       C  0.81695295  0.81979349  0.06307950    -0.14300
C1683       C  0.78067834  0.81508882  0.06571371     0.36300
C1684       C  0.76695052  0.79829012  0.09559398    -0.25700
C1685       C  0.78848890  0.78714199  0.12351053    -0.14900
C1686       C  0.82452684  0.79312217  0.12168271     0.37400
N1687       N  0.84702107  0.78168205  0.14991733    -0.89200
H1688       H  0.86618536  0.81287452  0.08947697     0.18500
H1689       H  0.73918761  0.79421707  0.09734123     0.18500
N1690       N  0.75791827  0.82761415  0.03819588    -0.88200
H1691       H  0.87278511  0.78816260  0.14449487     0.35900
H1692       H  0.84583060  0.75494290  0.15041619     0.41000
H1693       H  0.76016146  0.85429250  0.03789938     0.40600
H1694       H  0.73205346  0.82205073  0.04419609     0.35900
C1695       C  0.83411452  0.78691705  0.42132128    -0.26200
C1696       C  0.82522983  0.82071298  0.42988418    -0.14300
C1697       C  0.80397637  0.83961101  0.40614041     0.36300
C1698       C  0.79080174  0.82340411  0.37536562    -0.25700
C1699       C  0.79830600  0.78901617  0.36792948    -0.14900
C1700       C  0.82155066  0.77105278  0.39027234     0.37400
N1701       N  0.83299994  0.73685871  0.38233773    -0.89200
H1702       H  0.85088292  0.77261665  0.43912474     0.18500
H1703       H  0.77335661  0.83733500  0.35794777     0.18500
N1704       N  0.79436010  0.87463611  0.41275053    -0.88200
H1705       H  0.85995888  0.73763236  0.37956348     0.35900
H1706       H  0.82334414  0.72811596  0.35782173     0.41000
H1707       H  0.80500988  0.88405281  0.43652604     0.40600
H1708       H  0.76743934  0.87534167  0.41586436     0.35500
C1709       C  0.83770583  0.83367890  0.96513616     0.03200
C1710       C  0.86351133  0.85887461  0.96726932    -0.12900
C1711       C  0.87460401  0.87101311  0.50033071     0.00700
C1712       C  0.85946546  0.85840219  0.53173336    -0.11500
C1713       C  0.83303617  0.83353874  0.52986793     0.03200
C1714       C  0.82306721  0.82079387  0.99650626    -0.10900
H1715       H  0.87512959  0.86865158  0.94302996     0.08800
H1716       H  0.86805178  0.86820714  0.55745434     0.06300
H1717       H  0.80389142  0.80051622  0.99460902     0.06200
C1718       C  0.59612859  0.83541298  0.96689917     0.03200
C1719       C  0.60653896  0.82073257  0.99940872    -0.12900
C1720       C  0.59154886  0.83088209  0.53243215     0.00700
C1721       C  0.56586608  0.85629498  0.53210937    -0.11500
C1722       C  0.55573476  0.87155666  0.49984817     0.03200
C1723       C  0.57078432  0.86116037  0.96725860    -0.10900
H1724       H  0.62631754  0.80107462  0.99935608     0.08800
H1725       H  0.55365270  0.86419569  0.55684194     0.06300
H1726       H  0.56297049  0.87334964  0.94256668     0.06200
C1727       C  0.83571687  0.58681153  0.96624939     0.03200
C1728       C  0.82245914  0.59848232  0.99894269    -0.12900
C1729       C  0.83597485  0.58709113  0.53152094     0.00700
C1730       C  0.86238610  0.56243373  0.53120443    -0.11500
C1731       C  0.87454699  0.54917787  0.49862722     0.03200
C1732       C  0.86153948  0.56166309  0.96621255    -0.10900
H1733       H  0.80153899  0.61696161  0.99891771     0.08800
H1734       H  0.87384486  0.55381317  0.55605393     0.06300
H1735       H  0.87174252  0.55211172  0.94112258     0.06200
N1736       N  0.96532548  0.90781194  0.50314244    -0.36500
N1737       N  0.51878119  0.96069496  0.49765623    -0.57100
N1738       N  0.96508512  0.51314505  0.49473653    -0.36500
N1739       N  0.91132014  0.96009844  0.50097822    -0.57100
C1740       C  0.99358981  0.88769733  0.49881429     0.27100
C1741       C  0.93695536  0.88742977  0.50002703     0.27100
C1742       C  0.99340176  0.53366585  0.49687854     0.27100
C1743       C  0.93678673  0.53338466  0.49781079     0.27100
C1744       C  0.53978240  0.93313067  0.49984891     0.35700
C1745       C  0.53958365  0.98857639  0.49695408     0.35700
C1746       C  0.89052631  0.93231028  0.50306012     0.35700
C1747       C  0.89029077  0.98766352  0.49989623     0.35700
C1748       C  0.98303815  0.85401716  0.49382955    -0.21800
C1749       C  0.94742948  0.85384821  0.49457763    -0.21800
C1750       C  0.98286474  0.56747697  0.50023137    -0.21800
C1751       C  0.94726007  0.56729919  0.50078556    -0.21800
C1752       C  0.57417226  0.94356865  0.50051319    -0.22900
C1753       C  0.57405674  0.97861958  0.49856249    -0.22900
C1754       C  0.85604156  0.94233054  0.50360531    -0.22900
C1755       C  0.85589597  0.97734309  0.50156620    -0.22900
C1756       C  0.52867589  0.89855479  0.49994240    -0.18200
C1757       C  0.90178787  0.89788519  0.50214240    -0.18200
C1758       C  0.90168803  0.52246763  0.49843656    -0.18200
C1759       C  0.52840090  0.52315172  0.49643694    -0.18200
H1760       H  0.99929266  0.83178646  0.48981481     0.14700
H1761       H  0.93112923  0.83143697  0.49130538     0.14700
H1762       H  0.49895781  0.58974279  0.50531122     0.14700
H1763       H  0.93097779  0.58966414  0.50368292     0.14700
H1764       H  0.59702235  0.92761072  0.50211084     0.13000
H1765       H  0.59681386  0.99490930  0.49875772     0.13000
H1766       H  0.83326972  0.92610976  0.50472688     0.13000
H1767       H  0.83302147  0.99334226  0.50130737     0.13000
H1768       H  0.96549627  0.93336128  0.51063450     0.26200
H1769       H  0.96466702  0.98710925  0.48745590     0.26200
C1770       C  0.59506245  0.58847340  0.96756739     0.03200
C1771       C  0.60767854  0.59975953  0.00084645    -0.12900
C1772       C  0.59513977  0.58587467  0.53246067     0.00700
C1773       C  0.56826310  0.56167795  0.53097141    -0.11500
C1774       C  0.55547790  0.55016236  0.49784752     0.03200
C1775       C  0.56926552  0.56305077  0.96637753    -0.10900
H1776       H  0.62771371  0.61927567  0.00195815     0.08800
H1777       H  0.55782295  0.55123198  0.55547282     0.06300
H1778       H  0.56009198  0.55324197  0.94088620     0.06200
O1779       O  0.78651266  0.77995401  0.80653026    -0.75200
O1780       O  0.75779698  0.74861413  0.84854323    -0.54100
C1781       C  0.77986941  0.77150100  0.83901128     0.78500
O1782       O  0.64617029  0.77801378  0.68905263    -0.59800
O1783       O  0.67386428  0.74391178  0.64860718    -0.52800
C1784       C  0.65208669  0.76737053  0.65693574     0.70500
O1785       O  0.65076383  0.78191187  0.81058692    -0.74400
O1786       O  0.68267820  0.75146420  0.85086970    -0.54900
C1787       C  0.66039964  0.77458377  0.84269155     0.76500
O1788       O  0.78419727  0.77558813  0.68578055    -0.59500
O1789       O  0.74890024  0.74695463  0.64660566    -0.52600
C1790       C  0.77325062  0.76842242  0.65398068     0.73100
Zr1791     Zr  0.76895058  0.75987028  0.74707146     2.54700
O1792       O  0.77303190  0.82200650  0.74505312    -0.80100
O1793       O  0.83168844  0.75265017  0.74598672    -0.93500
Zr1794     Zr  0.66510696  0.76307929  0.74981469     2.64700
O1795       O  0.66786177  0.82538224  0.74873752    -0.98400
O1796       O  0.60203041  0.76482339  0.75135442    -0.80500
O1797       O  0.71807822  0.76290200  0.78259817    -0.83900
O1798       O  0.71601879  0.76181518  0.71446045    -2.18600
O1799       O  0.78239767  0.64093742  0.68796158    -0.67300
O1800       O  0.75215281  0.67342491  0.64814473    -0.51800
C1801       C  0.77481129  0.65061027  0.65598342     0.71500
O1802       O  0.64817390  0.64370499  0.81276121    -0.60200
O1803       O  0.68156821  0.67422313  0.85227869    -0.52100
C1804       C  0.65846409  0.65152328  0.84463123     0.73300
O1805       O  0.64338650  0.64263790  0.69138896    -0.71600
O1806       O  0.67595457  0.67053758  0.64976339    -0.50200
C1807       C  0.65237391  0.64908805  0.65893682     0.74700
O1808       O  0.78100787  0.63859228  0.80894881    -0.66900
O1809       O  0.75488351  0.67371737  0.84960487    -0.54100
C1810       C  0.77486216  0.64868968  0.84115407     0.73100
Zr1811     Zr  0.76552790  0.65762070  0.74871580     2.77500
O1812       O  0.76263843  0.59531379  0.74707838    -0.97600
O1813       O  0.82865372  0.65902374  0.75004610    -0.78500
Zr1814     Zr  0.66186936  0.66084748  0.75143860     2.70100
O1815       O  0.65879995  0.59859042  0.75127435    -0.79700
O1816       O  0.59903455  0.66581219  0.75431087    -0.98800
Zr1817     Zr  0.71745622  0.71175467  0.81675981     2.21500
Zr1818     Zr  0.71351213  0.70921071  0.68219360     2.11100
O1819       O  0.71276470  0.65781492  0.71597070    -2.47500
O1820       O  0.71468411  0.65938854  0.78423299    -0.79500
O1821       O  0.76703284  0.70811484  0.71360976    -0.71700
O1822       O  0.66371111  0.71261406  0.78507310    -2.32700
O1823       O  0.76904547  0.70940137  0.78220827    -2.28900
O1824       O  0.66167302  0.71130195  0.71633460    -0.73500
H1825       H  0.71601360  0.78118988  0.69853842     0.78500
H1826       H  0.64435524  0.71335606  0.80139078     0.79600
H1827       H  0.71192370  0.63790249  0.70055466     0.81900
H1828       H  0.78937966  0.70904315  0.79736759     0.79500
H1829       H  0.59522439  0.74403425  0.76464022     0.42500
H1830       H  0.59277605  0.68030701  0.73364844     0.41500
H1831       H  0.68313329  0.59115661  0.75449376     0.41100
H1832       H  0.74973049  0.58965165  0.72486920     0.39100
H1833       H  0.83510889  0.67479023  0.73051359     0.42200
H1834       H  0.83842228  0.74828661  0.77112383     0.37000
H1835       H  0.74874857  0.82988785  0.74725337     0.43100
H1836       H  0.67829041  0.83103292  0.72535057     0.39500
H1837       H  0.78672862  0.58797164  0.74223174     0.44400
H1838       H  0.84089870  0.77579764  0.74091680     0.43200
H1839       H  0.64337261  0.83267072  0.74652030     0.43300
H1840       H  0.59033433  0.64271798  0.74780670     0.43700
C1841       C  0.58702801  0.61434193  0.59129344    -0.26200
C1842       C  0.60931733  0.59762650  0.56731013    -0.14300
C1843       C  0.64502732  0.59495034  0.57586690     0.36300
C1844       C  0.65775108  0.61140096  0.60655882    -0.25700
C1845       C  0.63582307  0.62966119  0.62957490    -0.14900
C1846       C  0.59977969  0.63074267  0.62217072     0.37400
N1847       N  0.57562027  0.64933566  0.64408362    -0.89200
H1848       H  0.55963660  0.61623462  0.58498338     0.18500
H1849       H  0.68530252  0.61013607  0.61237955     0.18500
N1850       N  0.66914737  0.57604160  0.55416391    -0.88200
H1851       H  0.56464651  0.66851879  0.62830709     0.35900
H1852       H  0.58787242  0.66185490  0.66534020     0.41000
H1853       H  0.65666190  0.56293029  0.53341365     0.40600
H1854       H  0.68009632  0.55707423  0.57024528     0.35500
C1855       C  0.64605228  0.59916120  0.92880480    -0.26200
C1856       C  0.61022753  0.60258706  0.93437194    -0.14300
C1857       C  0.59021252  0.62128675  0.90947801     0.36300
C1858       C  0.60635007  0.63616238  0.87986642    -0.25700
C1859       C  0.64226230  0.63345657  0.87485119    -0.14900
C1860       C  0.66234853  0.61451112  0.89936505     0.37400
N1861       N  0.69897713  0.61022153  0.89381625    -0.89200
H1862       H  0.66141172  0.58479290  0.94783371     0.18500
H1863       H  0.59090649  0.65090986  0.86123351     0.18500
N1864       N  0.55386752  0.62702060  0.91446922    -0.88200
H1865       H  0.70951151  0.59399110  0.91314216     0.35900
H1866       H  0.71087385  0.63402598  0.89768167     0.41000
H1867       H  0.55021426  0.63833379  0.93956973     0.40600
H1868       H  0.54094142  0.60351162  0.91381265     0.35500
C1869       C  0.81903053  0.63844183  0.56667200    -0.26200
C1870       C  0.82327660  0.60275010  0.56531779    -0.14300
C1871       C  0.81347078  0.58288222  0.59509926     0.36300
C1872       C  0.79918414  0.59919533  0.62530783    -0.25700
C1873       C  0.79338605  0.63467141  0.62570766    -0.14900
C1874       C  0.80385743  0.65455690  0.59623773     0.37400
N1875       N  0.79886313  0.69105771  0.59634887    -0.89200
H1876       H  0.82715115  0.65385211  0.54418420     0.18500
H1877       H  0.79099206  0.58399068  0.64791368     0.18500
N1878       N  0.81674882  0.54623857  0.59406420    -0.88200
H1879       H  0.80748878  0.70181628  0.57243175     0.35900
H1880       H  0.81434615  0.70140851  0.61674163     0.41000
H1881       H  0.80017492  0.53700942  0.57399273     0.40600
H1882       H  0.80828250  0.53550140  0.61804553     0.35500
C1883       C  0.81049591  0.58113504  0.90462492    -0.26200
C1884       C  0.82299019  0.60211399  0.93251500    -0.14300
C1885       C  0.82157088  0.63792963  0.92884394     0.36300
C1886       C  0.80579844  0.65211876  0.89877858    -0.25700
C1887       C  0.79271296  0.63147495  0.87108997    -0.14900
C1888       C  0.79548992  0.59549482  0.87368864     0.37400
N1889       N  0.78129899  0.57372657  0.84615289    -0.89200
H1890       H  0.81155176  0.55356827  0.90746809     0.18500
H1891       H  0.80356474  0.67961883  0.89720808     0.18500
N1892       N  0.83640056  0.66005605  0.95556164    -0.88200
H1893       H  0.78337617  0.54800689  0.85343758     0.35900
H1894       H  0.79663043  0.57667349  0.82340094     0.41000
H1895       H  0.85520166  0.67531190  0.94333317     0.40600
H1896       H  0.81687229  0.67616057  0.96513730     0.35500
C1897       C  0.60647593  0.77923071  0.56796626    -0.26200
C1898       C  0.60352106  0.81502032  0.56637300    -0.14300
C1899       C  0.61427138  0.83502264  0.59607395     0.36300
C1900       C  0.62837273  0.81879002  0.62632719    -0.25700
C1901       C  0.63289132  0.78317789  0.62700696    -0.14900
C1902       C  0.62116801  0.76310948  0.59781127     0.37400
N1903       N  0.62449517  0.72643322  0.59849073    -0.89200
H1904       H  0.59777043  0.76379436  0.54547553     0.18500
H1905       H  0.63753336  0.83412965  0.64869903     0.18500
N1906       N  0.61223617  0.87174143  0.59485292    -0.88200
H1907       H  0.61471461  0.71546177  0.57494405     0.35900
H1908       H  0.60910261  0.71735880  0.61935176     0.41000
H1909       H  0.62901063  0.88010914  0.57480248     0.40600
H1910       H  0.62118396  0.88257139  0.61881156     0.35500
C1911       C  0.64843378  0.81966978  0.93175941    -0.26200
C1912       C  0.61223483  0.82342167  0.93299832    -0.14300
C1913       C  0.59206970  0.81334510  0.90304242     0.36300
C1914       C  0.60857190  0.79918217  0.87288671    -0.25700
C1915       C  0.64453589  0.79371231  0.87265786    -0.14900
C1916       C  0.66475683  0.80466944  0.90212925     0.37400
N1917       N  0.70178090  0.80024990  0.90196133    -0.89200
H1918       H  0.66402336  0.82790094  0.95441915     0.18500
H1919       H  0.59310674  0.79066070  0.85025065     0.18500
N1920       N  0.55490413  0.81607566  0.90391503    -0.88200
H1921       H  0.71281109  0.80939192  0.92576914     0.35900
H1922       H  0.71176216  0.81534117  0.88141103     0.41000
H1923       H  0.54588122  0.79961018  0.92378619     0.40600
H1924       H  0.54401556  0.80753549  0.87980548     0.35500
C1925       C  0.83889099  0.80839010  0.59091503    -0.26200
C1926       C  0.81726328  0.81930481  0.56288542    -0.14300
C1927       C  0.78097462  0.81503586  0.56599745     0.36300
C1928       C  0.76740636  0.79810437  0.59587465    -0.25700
C1929       C  0.78908495  0.78655196  0.62348525    -0.14900
C1930       C  0.82517535  0.79216907  0.62126694     0.37400
N1931       N  0.84782746  0.78056031  0.64929012    -0.89200
H1932       H  0.86670869  0.81157629  0.58861743     0.18500
H1933       H  0.73961718  0.79437993  0.59793881     0.18500
N1934       N  0.75801126  0.82826057  0.53903212    -0.88200
H1935       H  0.87359353  0.78682174  0.64360438     0.35900
H1936       H  0.84641031  0.75383493  0.64984237     0.41000
H1937       H  0.76062919  0.85491109  0.53912757     0.40600
H1938       H  0.73215944  0.82297112  0.54534474     0.35900
C1939       C  0.83490548  0.78631571  0.92141548    -0.26200
C1940       C  0.82602932  0.82006813  0.93022792    -0.14300
C1941       C  0.80452341  0.83900836  0.90677468     0.36300
C1942       C  0.79168167  0.82314600  0.87565705    -0.25700
C1943       C  0.79920861  0.78883086  0.86788545    -0.14900
C1944       C  0.82224825  0.77061890  0.89027244     0.37400
N1945       N  0.83327856  0.73628151  0.88236330    -0.89200
H1946       H  0.85162477  0.77188124  0.93914824     0.18500
H1947       H  0.77419564  0.83719524  0.85839024     0.18500
N1948       N  0.79403198  0.87364490  0.91419310    -0.88200
H1949       H  0.86025973  0.73668007  0.87976072     0.35900
H1950       H  0.82363993  0.72769922  0.85777884     0.41000
H1951       H  0.80420203  0.88274460  0.93832085     0.40600
H1952       H  0.76707354  0.87362524  0.91709511     0.35500
loop_ 
_geom_bond_atom_site_label_1 
_geom_bond_atom_site_label_2 
_geom_bond_distance 
_geom_bond_site_symmetry_2 
_ccdc_geom_bond_type 
C1            C2   1.399       .  A
C1            C6   1.400       .  A
C1          C232   1.475       .  S
C2          C247   1.402       .  A
C2            H7   1.084       .  S
C3            C4   1.405       .  A
C3          C246   1.402   1_554  A
C3           C49   1.483       .  S
C4            C5   1.407       .  A
C4            H8   1.084       .  S
C5          C250   1.404   1_554  A
C5          C218   1.487       .  S
C6          C249   1.405       .  A
C6            H9   1.084       .  S
C10          C11   1.405       .  A
C10          C15   1.405       .  A
C10         C204   1.489       .  S
C11         C256   1.405       .  A
C11          H16   1.084       .  S
C12          C13   1.403       .  A
C12         C255   1.404   1_554  A
C12         C190   1.487       .  S
C13          C14   1.402   1_554  A
C13          H17   1.083       .  S
C14         C259   1.404       .  A
C14          C48   1.483       .  S
C15         C258   1.404       .  A
C15          H18   1.083       .  S
C19          C20   1.401       .  A
C19          C24   1.401       .  A
C19         C176   1.481       .  S
C20         C265   1.402       .  A
C20          H25   1.084       .  S
C21          C22   1.404       .  A
C21         C264   1.403   1_554  A
C21         C162   1.487       .  S
C22          C23   1.405   1_554  A
C22          H26   1.083       .  S
C23         C268   1.403       .  A
C23          C50   1.481       .  S
C24         C267   1.403       .  A
C24          H27   1.084       .  S
N28          C33   1.355       .  A
N28          C32   1.355   1_554  A
N28          H60   1.034       .  S
N29          C36   1.351       .  A
N29          C37   1.351       .  A
N30          C35   1.355       .  A
N30          C34   1.355       .  A
N30         H549   1.035   1_545  S
N31          C38   1.351       .  A
N31          C39   1.350   1_554  A
C32          C40   1.387       .  A
C32        C1024   1.419   1_556  A
C33          C49   1.419       .  A
C33          C41   1.388   1_554  A
C34          C42   1.388   1_556  A
C34        C1027   1.419       .  A
C35          C50   1.418       .  A
C35          C43   1.388   1_556  A
C36          C48   1.415       .  A
C36          C44   1.387   1_556  A
C37          C45   1.387       .  A
C37         C539   1.415       .  A
C38          C46   1.387       .  A
C38          C49   1.415       .  A
C39          C47   1.387   1_556  A
C39         C538   1.414       .  A
C40          C41   1.373       .  A
C40          H52   1.083       .  S
C41          H53   1.082       .  S
C42          C43   1.373       .  A
C42        H1030   1.082       .  S
C43          H55   1.082       .  S
C44          C45   1.371   1_554  A
C44          H56   1.082       .  S
C45          H57   1.082       .  S
C46          C47   1.370       .  A
C46          H58   1.083       .  S
C47          H59   1.083   1_554  S
C48        C1008   1.419   1_455  A
C50         C527   1.415   1_545  A
C51        C1010   1.419   1_455  A
C51         C525   1.416   1_545  A
C51          C66   1.482       .  S
H54        C1018   1.082       .  S
H61         N518   1.035       .  S
C62          C63   1.404       .  A
C62          C67   1.404       .  A
C62         C148   1.483       .  S
C63         C308   1.405       .  A
C63          H68   1.084       .  S
C64          C65   1.400       .  A
C64         C307   1.403       .  A
C64         C134   1.478       .  S
C65          C66   1.402   1_554  A
C65          H69   1.084       .  S
C66         C311   1.404       .  A
C67         C310   1.403       .  A
C67          H70   1.083       .  S
O71         Zr83   2.448       .  S
O71          C73   1.288       .  A
O72        Zr109   2.417       .  S
O72          C73   1.285       .  A
C73         C235   1.470       .  S
O74         Zr86   2.461       .  S
O74          C76   1.291       .  A
O75        Zr110   2.404       .  S
O75          C76   1.283       .  A
C76         C193   1.480       .  S
O77         Zr86   2.456       .  S
O77          C79   1.290       .  A
O78        Zr109   2.412       .  S
O78          C79   1.285       .  A
C79         C207   1.480       .  S
O80         Zr83   2.451       .  S
O80          C82   1.289       .  A
O81        Zr110   2.413       .  S
O81          C82   1.285       .  A
C82         C221   1.478       .  S
Zr83         O84   2.433       .  S
Zr83         O85   2.437       .  S
Zr83         O89   2.377       .  S
Zr83         O90   2.375       .  S
Zr83        O113   2.372       .  S
Zr83        O115   2.375       .  S
O84         H127   0.990       .  S
O85         H126   0.990       .  S
O85         H130   0.990       .  S
Zr86         O87   2.435       .  S
Zr86         O88   2.434       .  S
Zr86         O90   2.373       .  S
Zr86         O89   2.376       .  S
Zr86        O114   2.377       .  S
Zr86        O116   2.376       .  S
O87         H128   0.990       .  S
O87         H131   0.990       .  S
O88         H121   0.990       .  S
O89        Zr109   2.377       .  S
O90        Zr110   2.378       .  S
O90         H117   0.966       .  S
O91        Zr103   2.451       .  S
O91          C93   1.289       .  A
O92        Zr110   2.410       .  S
O92          C93   1.284       .  A
C93         C165   1.478       .  S
O94        Zr106   2.445       .  S
O94          C96   1.288       .  A
O95        Zr109   2.420       .  S
O95          C96   1.285       .  A
C96         C151   1.473       .  S
O97        Zr106   2.451       .  S
O97          C99   1.289       .  A
O98        Zr110   2.406       .  S
O98          C99   1.283       .  A
C99         C137   1.471       .  S
O100       Zr103   2.447       .  S
O100        C102   1.288       .  A
O101       Zr109   2.409       .  S
O101        C102   1.285       .  A
C102        C179   1.476       .  S
Zr103       O104   2.435       .  S
Zr103       O105   2.435       .  S
Zr103       O111   2.371       .  S
Zr103       O112   2.373       .  S
Zr103       O115   2.375       .  S
Zr103       O113   2.377       .  S
O104        H124   0.990       .  S
O104        H129   0.990       .  S
O105        H125   0.990       .  S
Zr106       O107   2.435       .  S
Zr106       O108   2.433       .  S
Zr106       O112   2.374       .  S
Zr106       O111   2.375       .  S
Zr106       O116   2.373       .  S
Zr106       O114   2.376       .  S
O107        H123   0.990       .  S
O108        H122   0.990       .  S
O108        H132   0.990       .  S
Zr109       O112   2.375       .  S
Zr109       O114   2.382       .  S
Zr109       O115   2.379       .  S
Zr110       O111   2.379       .  S
Zr110       O113   2.373       .  S
Zr110       O116   2.377       .  S
O111        H119   0.966       .  S
O114        H118   0.967       .  S
O115        H120   0.966       .  S
C133        C134   1.404       .  A
C133        C138   1.403       .  A
C133        H140   1.084       .  S
C134        C135   1.416       .  A
C135        C136   1.397       .  A
C135        N142   1.440       .  S
C136        C137   1.402       .  A
C136        H141   1.085       .  S
C137        C138   1.416       .  A
C138        N139   1.439       .  S
N139        H143   1.046       .  S
N139        H144   1.042       .  S
N142        H145   1.043       .  S
N142        H146   1.046       .  S
C147        C148   1.405       .  A
C147        C152   1.406       .  A
C147        H154   1.084       .  S
C148        C149   1.416       .  A
C149        C150   1.401       .  A
C149        N156   1.433       .  S
C150        C151   1.402       .  A
C150        H155   1.084       .  S
C151        C152   1.411       .  A
C152        N153   1.439       .  S
N153        H157   1.046       .  S
N153        H158   1.045       .  S
N156        H159   1.045       .  S
N156        H160   1.044       .  S
C161        C162   1.405       .  A
C161        C166   1.401       .  A
C161        H168   1.084       .  S
C162        C163   1.414       .  A
C163        C164   1.409       .  A
C163        N170   1.438       .  S
C164        C165   1.404       .  A
C164        H169   1.084       .  S
C165        C166   1.411       .  A
C166        N167   1.439       .  S
N167        H171   1.046       .  S
N167        H172   1.045       .  S
N170        H173   1.046       .  S
N170        H174   1.045       .  S
C175        C176   1.405       .  A
C175        C180   1.410       .  A
C175        H182   1.083       .  S
C176        C177   1.408       .  A
C177        C178   1.394       .  A
C177        N184   1.434       .  S
C178        C179   1.400       .  A
C178        H183   1.080       .  S
C179        C180   1.413       .  A
C180        N181   1.437       .  S
N181        H185   1.046       .  S
N181        H186   1.045       .  S
N184        H187   1.046       .  S
N184        H188   1.046       .  S
C189        C190   1.404       .  A
C189        C194   1.403       .  A
C189        H196   1.084       .  S
C190        C191   1.414       .  A
C191        C192   1.409       .  A
C191        N198   1.438       .  S
C192        C193   1.403       .  A
C192        H197   1.084       .  S
C193        C194   1.413       .  A
C194        N195   1.439       .  S
N195        H199   1.046       .  S
N195        H200   1.045       .  S
N198        H201   1.046       .  S
N198        H202   1.046       .  S
C203        C204   1.405       .  A
C203        C208   1.404       .  A
C203        H210   1.084       .  S
C204        C205   1.414       .  A
C205        C206   1.409       .  A
C205        N212   1.438       .  S
C206        C207   1.403       .  A
C206        H211   1.084       .  S
C207        C208   1.412       .  A
C208        N209   1.439       .  S
N209        H213   1.046       .  S
N209        H214   1.045       .  S
N212        H215   1.046       .  S
N212        H216   1.046       .  S
C217        C218   1.405       .  A
C217        C222   1.407       .  A
C217        H224   1.083       .  S
C218        C219   1.414       .  A
C219        C220   1.404       .  A
C219        N226   1.439       .  S
C220        C221   1.403       .  A
C220        H225   1.084       .  S
C221        C222   1.411       .  A
C222        N223   1.438       .  S
N223        H227   1.046       .  S
N223        H228   1.046       .  S
N226        H229   1.046       .  S
N226        H230   1.046       .  S
C231        C232   1.401       .  A
C231        C236   1.398       .  A
C231        H238   1.084       .  S
C232        C233   1.417       .  A
C233        C234   1.403       .  A
C233        N240   1.439       .  S
C234        C235   1.401       .  A
C234        H239   1.084       .  S
C235        C236   1.414       .  A
C236        N237   1.438       .  S
N237        H241   1.045       .  S
N237        H242   1.043       .  S
N240        H243   1.043       .  S
N240        H244   1.046       .  S
C245        C246   1.399       .  A
C245        C250   1.400       .  A
C245        C476   1.475       .  S
C246        H251   1.084       .  S
C247        C248   1.405       .  A
C247        C293   1.484       .  S
C248        C249   1.408       .  A
C248        H252   1.084       .  S
C249        C462   1.488       .  S
C250        H253   1.084       .  S
C254        C255   1.405       .  A
C254        C259   1.405       .  A
C254        C448   1.488       .  S
C255        H260   1.084       .  S
C256        C257   1.405       .  A
C256        C434   1.489       .  S
C257        C258   1.403       .  A
C257        H261   1.083       .  S
C258        C292   1.485       .  S
C259        H262   1.083       .  S
C263        C264   1.401       .  A
C263        C268   1.401       .  A
C263        C420   1.481       .  S
C264        H269   1.084       .  S
C265        C266   1.404       .  A
C265        C406   1.486       .  S
C266        C267   1.404       .  A
C266        H270   1.083       .  S
C267        C294   1.480       .  S
C268        H271   1.084       .  S
N272        C277   1.356       .  A
N272        C276   1.355       .  A
N272        H304   1.035       .  S
N273        C280   1.351       .  A
N273        C281   1.351       .  A
N274        C279   1.355       .  A
N274        C278   1.355       .  A
N274        H793   1.035   1_545  S
N275        C282   1.351       .  A
N275        C283   1.350       .  A
C276        C284   1.387       .  A
C276       C1268   1.419       .  A
C277        C293   1.420       .  A
C277        C285   1.388       .  A
C278        C286   1.388       .  A
C278       C1271   1.419       .  A
C279        C294   1.418       .  A
C279        C287   1.387       .  A
C280        C292   1.415       .  A
C280        C288   1.386       .  A
C281        C783   1.417       .  A
C281        C289   1.388       .  A
C282        C290   1.387       .  A
C282        C293   1.415       .  A
C283        C291   1.387       .  A
C283        C782   1.415       .  A
C284        C285   1.374       .  A
C284        H296   1.082       .  S
C285        H297   1.082       .  S
C286        C287   1.373       .  A
C286       H1274   1.082       .  S
C287        H299   1.082       .  S
C288        C289   1.372       .  A
C288        H300   1.082       .  S
C289        H301   1.082       .  S
C290        C291   1.370       .  A
C290        H302   1.082       .  S
C291        H303   1.083       .  S
C292       C1252   1.419   1_455  A
C294        C771   1.414   1_545  A
C295       C1254   1.419   1_455  A
C295        C769   1.416   1_545  A
C295        C310   1.483       .  S
H298       C1262   1.082       .  S
H305        N762   1.035       .  S
C306        C307   1.403   1_556  A
C306        C311   1.404       .  A
C306        C392   1.483       .  S
C307        H312   1.084       .  S
C308        C309   1.401       .  A
C308        C378   1.481       .  S
C309        C310   1.403       .  A
C309        H313   1.084       .  S
C311        H314   1.083       .  S
O315       Zr327   2.446       .  S
O315        C317   1.287       .  A
O316       Zr353   2.417       .  S
O316        C317   1.285       .  A
C317        C479   1.469       .  S
O318       Zr330   2.460       .  S
O318        C320   1.291       .  A
O319       Zr354   2.401       .  S
O319        C320   1.283       .  A
C320        C437   1.479       .  S
O321       Zr330   2.453       .  S
O321        C323   1.290       .  A
O322       Zr353   2.413       .  S
O322        C323   1.285       .  A
C323        C451   1.479       .  S
O324       Zr327   2.449       .  S
O324        C326   1.289       .  A
O325       Zr354   2.415       .  S
O325        C326   1.285       .  A
C326        C465   1.478       .  S
Zr327       O328   2.434       .  S
Zr327       O329   2.437       .  S
Zr327       O333   2.376       .  S
Zr327       O334   2.375       .  S
Zr327       O357   2.373       .  S
Zr327       O359   2.375       .  S
O328        H371   0.990       .  S
O329        H370   0.990       .  S
O329        H374   0.990       .  S
Zr330       O331   2.436       .  S
Zr330       O332   2.434       .  S
Zr330       O334   2.372       .  S
Zr330       O333   2.377       .  S
Zr330       O358   2.378       .  S
Zr330       O360   2.376       .  S
O331        H372   0.990       .  S
O331        H375   0.990       .  S
O332        H365   0.990       .  S
O333       Zr353   2.377       .  S
O334       Zr354   2.379       .  S
O334        H361   0.966       .  S
O335       Zr347   2.450       .  S
O335        C337   1.289       .  A
O336       Zr354   2.406       .  S
O336        C337   1.284       .  A
C337        C409   1.476       .  S
O338       Zr350   2.449       .  S
O338        C340   1.289       .  A
O339       Zr353   2.418       .  S
O339        C340   1.285       .  A
C340        C395   1.474       .  S
O341       Zr350   2.455       .  S
O341        C343   1.290       .  A
O342       Zr354   2.410       .  S
O342        C343   1.284       .  A
C343        C381   1.474       .  S
O344       Zr347   2.448       .  S
O344        C346   1.288       .  A
O345       Zr353   2.409       .  S
O345        C346   1.285       .  A
C346        C423   1.477       .  S
Zr347       O348   2.437       .  S
Zr347       O349   2.434       .  S
Zr347       O355   2.370       .  S
Zr347       O356   2.373       .  S
Zr347       O359   2.376       .  S
Zr347       O357   2.378       .  S
O348        H368   0.990       .  S
O348        H373   0.990       .  S
O349        H369   0.990       .  S
Zr350       O351   2.435       .  S
Zr350       O352   2.434       .  S
Zr350       O356   2.373       .  S
Zr350       O355   2.375       .  S
Zr350       O360   2.374       .  S
Zr350       O358   2.377       .  S
O351        H367   0.990       .  S
O352        H366   0.990       .  S
O352        H376   0.990       .  S
Zr353       O356   2.375       .  S
Zr353       O358   2.382       .  S
Zr353       O359   2.379       .  S
Zr354       O355   2.379       .  S
Zr354       O357   2.374       .  S
Zr354       O360   2.377       .  S
O355        H363   0.966       .  S
O358        H362   0.967       .  S
O359        H364   0.966       .  S
C377        C378   1.404       .  A
C377        C382   1.404       .  A
C377        H384   1.084       .  S
C378        C379   1.417       .  A
C379        C380   1.399       .  A
C379        N386   1.440       .  S
C380        C381   1.403       .  A
C380        H385   1.085       .  S
C381        C382   1.417       .  A
C382        N383   1.439       .  S
N383        H387   1.046       .  S
N383        H388   1.042       .  S
N386        H389   1.043       .  S
N386        H390   1.046       .  S
C391        C392   1.405       .  A
C391        C396   1.406       .  A
C391        H398   1.084       .  S
C392        C393   1.415       .  A
C393        C394   1.400       .  A
C393        N400   1.433       .  S
C394        C395   1.402       .  A
C394        H399   1.084       .  S
C395        C396   1.411       .  A
C396        N397   1.439       .  S
N397        H401   1.046       .  S
N397        H402   1.045       .  S
N400        H403   1.046       .  S
N400        H404   1.044       .  S
C405        C406   1.405       .  A
C405        C410   1.400       .  A
C405        H412   1.084       .  S
C406        C407   1.413       .  A
C407        C408   1.408       .  A
C407        N414   1.438       .  S
C408        C409   1.404       .  A
C408        H413   1.084       .  S
C409        C410   1.411       .  A
C410        N411   1.439       .  S
N411        H415   1.046       .  S
N411        H416   1.045       .  S
N414        H417   1.046       .  S
N414        H418   1.045       .  S
C419        C420   1.405       .  A
C419        C424   1.411       .  A
C419        H426   1.083       .  S
C420        C421   1.408       .  A
C421        C422   1.394       .  A
C421        N428   1.434       .  S
C422        C423   1.400       .  A
C422        H427   1.079       .  S
C423        C424   1.413       .  A
C424        N425   1.437       .  S
N425        H429   1.046       .  S
N425        H430   1.045       .  S
N428        H431   1.046       .  S
N428        H432   1.046       .  S
C433        C434   1.405       .  A
C433        C438   1.404       .  A
C433        H440   1.084       .  S
C434        C435   1.415       .  A
C435        C436   1.408       .  A
C435        N442   1.438       .  S
C436        C437   1.402       .  A
C436        H441   1.084       .  S
C437        C438   1.413       .  A
C438        N439   1.439       .  S
N439        H443   1.046       .  S
N439        H444   1.045       .  S
N442        H445   1.046       .  S
N442        H446   1.046       .  S
C447        C448   1.405       .  A
C447        C452   1.403       .  A
C447        H454   1.084       .  S
C448        C449   1.415       .  A
C449        C450   1.408       .  A
C449        N456   1.438       .  S
C450        C451   1.403       .  A
C450        H455   1.084       .  S
C451        C452   1.411       .  A
C452        N453   1.439       .  S
N453        H457   1.046       .  S
N453        H458   1.045       .  S
N456        H459   1.046       .  S
N456        H460   1.046       .  S
C461        C462   1.405       .  A
C461        C466   1.407       .  A
C461        H468   1.083       .  S
C462        C463   1.414       .  A
C463        C464   1.405       .  A
C463        N470   1.438       .  S
C464        C465   1.403       .  A
C464        H469   1.084       .  S
C465        C466   1.411       .  A
C466        N467   1.438       .  S
N467        H471   1.046       .  S
N467        H472   1.046       .  S
N470        H473   1.046       .  S
N470        H474   1.046       .  S
C475        C476   1.401       .  A
C475        C480   1.398       .  A
C475        H482   1.084       .  S
C476        C477   1.418       .  A
C477        C478   1.403       .  A
C477        N484   1.439       .  S
C478        C479   1.401       .  A
C478        H483   1.084       .  S
C479        C480   1.414       .  A
C480        N481   1.438       .  S
N481        H485   1.045       .  S
N481        H486   1.043       .  S
N484        H487   1.043       .  S
N484        H488   1.046       .  S
C489        C490   1.398       .  A
C489        C494   1.401       .  A
C489        C720   1.475       .  S
C490        C735   1.401       .  A
C490        H495   1.084       .  S
C491        C734   1.402   1_554  A
C491        C492   1.405       .  A
C491        C537   1.483       .  S
C492        C493   1.407       .  A
C492        H496   1.084       .  S
C493        C738   1.405   1_554  A
C493        C706   1.488       .  S
C494        C737   1.405       .  A
C494        H497   1.084       .  S
C498        C499   1.405       .  A
C498        C503   1.405       .  A
C498        C692   1.490       .  S
C499        C744   1.405       .  A
C499        H504   1.084       .  S
C500        C743   1.404   1_554  A
C500        C501   1.404       .  A
C500        C678   1.489       .  S
C501        C502   1.403   1_554  A
C501        H505   1.083       .  S
C502        C747   1.405       .  A
C502        C536   1.484   1_556  S
C503        C746   1.404       .  A
C503        H506   1.083       .  S
C507        C508   1.401       .  A
C507        C512   1.400       .  A
C507        C664   1.480       .  S
C508        C753   1.402       .  A
C508        H513   1.084       .  S
C509        C752   1.402   1_554  A
C509        C510   1.403       .  A
C509        C650   1.486       .  S
C510        C511   1.404   1_554  A
C510        H514   1.083       .  S
C511        C756   1.403       .  A
C511        C538   1.479       .  S
C512        C755   1.402       .  A
C512        H515   1.084       .  S
N516        C521   1.355       .  A
N516        C520   1.355   1_554  A
N516        H548   1.035       .  S
N517        C524   1.351       .  A
N517        C525   1.351       .  A
N518        C523   1.354       .  A
N518        C522   1.355       .  A
N519        C526   1.351       .  A
N519        C527   1.351   1_554  A
C520        C528   1.387       .  A
C520       C1512   1.419       .  A
C521        C537   1.420       .  A
C521        C529   1.388   1_554  A
C522        C530   1.388   1_556  A
C522       C1515   1.418       .  A
C523        C538   1.417       .  A
C523        C531   1.387   1_556  A
C524        C536   1.416   1_556  A
C524        C532   1.387       .  A
C525        C533   1.387       .  A
C526        C534   1.387       .  A
C526        C537   1.415       .  A
C527        C535   1.387   1_556  A
C528        C529   1.373       .  A
C528        H540   1.083       .  S
C529        H541   1.082       .  S
C530        C531   1.373       .  A
C530       H1518   1.082       .  S
C531        H543   1.082       .  S
C532        C533   1.371       .  A
C532        H544   1.082   1_556  S
C533        H545   1.083       .  S
C534        C535   1.371       .  A
C534        H546   1.082       .  S
C535        H547   1.083       .  S
C536       C1496   1.419   1_455  A
C539       C1498   1.419   1_455  A
C539        C554   1.482       .  S
H542       C1506   1.082       .  S
C550        C551   1.404       .  A
C550        C555   1.404       .  A
C550        C636   1.483       .  S
C551        C796   1.404       .  A
C551        H556   1.084       .  S
C552        C795   1.403       .  A
C552        C553   1.401       .  A
C552        C622   1.479       .  S
C553        C554   1.402   1_554  A
C553        H557   1.084       .  S
C554        C799   1.403       .  A
C555        C798   1.403       .  A
C555        H558   1.083       .  S
O559       Zr571   2.447       .  S
O559        C561   1.287       .  A
O560       Zr597   2.416       .  S
O560        C561   1.285       .  A
C561        C723   1.470       .  S
O562       Zr574   2.457       .  S
O562        C564   1.290       .  A
O563       Zr598   2.405       .  S
O563        C564   1.283       .  A
C564        C681   1.479       .  S
O565       Zr574   2.452       .  S
O565        C567   1.290       .  A
O566       Zr597   2.415       .  S
O566        C567   1.285       .  A
C567        C695   1.481       .  S
O568       Zr571   2.450       .  S
O568        C570   1.289       .  A
O569       Zr598   2.412       .  S
O569        C570   1.284       .  A
C570        C709   1.478       .  S
Zr571       O572   2.432       .  S
Zr571       O573   2.438       .  S
Zr571       O577   2.377       .  S
Zr571       O578   2.375       .  S
Zr571       O601   2.372       .  S
Zr571       O603   2.375       .  S
O572        H615   0.990       .  S
O573        H614   0.990       .  S
O573        H618   0.990       .  S
Zr574       O575   2.435       .  S
Zr574       O576   2.434       .  S
Zr574       O578   2.374       .  S
Zr574       O577   2.378       .  S
Zr574       O602   2.376       .  S
Zr574       O604   2.375       .  S
O575        H616   0.990       .  S
O575        H619   0.990       .  S
O576        H609   0.990       .  S
O577       Zr597   2.376       .  S
O578       Zr598   2.378       .  S
O578        H605   0.966       .  S
O579       Zr591   2.449       .  S
O579        C581   1.289       .  A
O580       Zr598   2.410       .  S
O580        C581   1.284       .  A
C581        C653   1.476       .  S
O582       Zr594   2.449       .  S
O582        C584   1.289       .  A
O583       Zr597   2.418       .  S
O583        C584   1.285       .  A
C584        C639   1.474       .  S
O585       Zr594   2.450       .  S
O585        C587   1.289       .  A
O586       Zr598   2.405       .  S
O586        C587   1.283       .  A
C587        C625   1.470       .  S
O588       Zr591   2.448       .  S
O588        C590   1.288       .  A
O589       Zr597   2.407       .  S
O589        C590   1.284       .  A
C590        C667   1.475       .  S
Zr591       O592   2.436       .  S
Zr591       O593   2.434       .  S
Zr591       O599   2.370       .  S
Zr591       O600   2.373       .  S
Zr591       O603   2.376       .  S
Zr591       O601   2.379       .  S
O592        H612   0.990       .  S
O592        H617   0.990       .  S
O593        H613   0.990       .  S
Zr594       O595   2.434       .  S
Zr594       O596   2.433       .  S
Zr594       O600   2.375       .  S
Zr594       O599   2.375       .  S
Zr594       O604   2.373       .  S
Zr594       O602   2.375       .  S
O595        H611   0.990       .  S
O596        H610   0.990       .  S
O596        H620   0.990       .  S
Zr597       O600   2.377       .  S
Zr597       O602   2.382       .  S
Zr597       O603   2.381       .  S
Zr598       O599   2.379       .  S
Zr598       O601   2.375       .  S
Zr598       O604   2.377       .  S
O599        H607   0.966       .  S
O602        H606   0.966       .  S
O603        H608   0.966       .  S
C621        C622   1.404       .  A
C621        C626   1.403       .  A
C621        H628   1.084       .  S
C622        C623   1.416       .  A
C623        C624   1.397       .  A
C623        N630   1.440       .  S
C624        C625   1.402       .  A
C624        H629   1.085       .  S
C625        C626   1.416       .  A
C626        N627   1.439       .  S
N627        H631   1.046       .  S
N627        H632   1.042       .  S
N630        H633   1.043       .  S
N630        H634   1.046       .  S
C635        C636   1.405       .  A
C635        C640   1.406       .  A
C635        H642   1.084       .  S
C636        C637   1.415       .  A
C637        C638   1.400       .  A
C637        N644   1.433       .  S
C638        C639   1.402       .  A
C638        H643   1.084       .  S
C639        C640   1.411       .  A
C640        N641   1.439       .  S
N641        H645   1.046       .  S
N641        H646   1.045       .  S
N644        H647   1.045       .  S
N644        H648   1.044       .  S
C649        C650   1.405       .  A
C649        C654   1.400       .  A
C649        H656   1.084       .  S
C650        C651   1.414       .  A
C651        C652   1.409       .  A
C651        N658   1.438       .  S
C652        C653   1.404       .  A
C652        H657   1.084       .  S
C653        C654   1.411       .  A
C654        N655   1.439       .  S
N655        H659   1.046       .  S
N655        H660   1.045       .  S
N658        H661   1.046       .  S
N658        H662   1.045       .  S
C663        C664   1.405       .  A
C663        C668   1.410       .  A
C663        H670   1.084       .  S
C664        C665   1.408       .  A
C665        C666   1.394       .  A
C665        N672   1.434       .  S
C666        C667   1.400       .  A
C666        H671   1.080       .  S
C667        C668   1.413       .  A
C668        N669   1.437       .  S
N669        H673   1.046       .  S
N669        H674   1.045       .  S
N672        H675   1.046       .  S
N672        H676   1.046       .  S
C677        C678   1.405       .  A
C677        C682   1.403       .  A
C677        H684   1.084       .  S
C678        C679   1.415       .  A
C679        C680   1.408       .  A
C679        N686   1.438       .  S
C680        C681   1.403       .  A
C680        H685   1.084       .  S
C681        C682   1.412       .  A
C682        N683   1.439       .  S
N683        H687   1.046       .  S
N683        H688   1.045       .  S
N686        H689   1.046       .  S
N686        H690   1.046       .  S
C691        C692   1.405       .  A
C691        C696   1.403       .  A
C691        H698   1.084       .  S
C692        C693   1.415       .  A
C693        C694   1.409       .  A
C693        N700   1.438       .  S
C694        C695   1.404       .  A
C694        H699   1.084       .  S
C695        C696   1.412       .  A
C696        N697   1.439       .  S
N697        H701   1.046       .  S
N697        H702   1.045       .  S
N700        H703   1.046       .  S
N700        H704   1.046       .  S
C705        C706   1.405       .  A
C705        C710   1.407       .  A
C705        H712   1.083       .  S
C706        C707   1.414       .  A
C707        C708   1.404       .  A
C707        N714   1.438       .  S
C708        C709   1.403       .  A
C708        H713   1.084       .  S
C709        C710   1.411       .  A
C710        N711   1.438       .  S
N711        H715   1.046       .  S
N711        H716   1.046       .  S
N714        H717   1.046       .  S
N714        H718   1.046       .  S
C719        C720   1.401       .  A
C719        C724   1.398       .  A
C719        H726   1.084       .  S
C720        C721   1.418       .  A
C721        C722   1.403       .  A
C721        N728   1.439       .  S
C722        C723   1.402       .  A
C722        H727   1.084       .  S
C723        C724   1.414       .  A
C724        N725   1.438       .  S
N725        H729   1.046       .  S
N725        H730   1.043       .  S
N728        H731   1.043       .  S
N728        H732   1.045       .  S
C733        C734   1.399       .  A
C733        C738   1.400       .  A
C733        C964   1.475       .  S
C734        H739   1.084       .  S
C735        C736   1.405       .  A
C735        C781   1.482       .  S
C736        C737   1.407       .  A
C736        H740   1.084       .  S
C737        C950   1.490       .  S
C738        H741   1.084       .  S
C742        C743   1.405       .  A
C742        C747   1.405       .  A
C742        C936   1.490       .  S
C743        H748   1.084       .  S
C744        C745   1.404       .  A
C744        C922   1.489       .  S
C745        C746   1.403       .  A
C745        H749   1.083       .  S
C746        C780   1.484       .  S
C747        H750   1.083       .  S
C751        C752   1.402       .  A
C751        C756   1.401       .  A
C751        C908   1.481       .  S
C752        H757   1.084       .  S
C753        C754   1.404       .  A
C753        C894   1.486       .  S
C754        C755   1.404       .  A
C754        H758   1.083       .  S
C755        C782   1.479       .  S
C756        H759   1.084       .  S
N760        C765   1.356       .  A
N760        C764   1.356       .  A
N760        H792   1.035       .  S
N761        C768   1.352       .  A
N761        C769   1.351       .  A
N762        C767   1.354       .  A
N762        C766   1.355       .  A
N763        C770   1.350       .  A
N763        C771   1.350       .  A
C764        C772   1.387       .  A
C764       C1756   1.419       .  A
C765        C781   1.420       .  A
C765        C773   1.388       .  A
C766        C774   1.388       .  A
C766       C1759   1.419       .  A
C767        C782   1.418       .  A
C767        C775   1.388       .  A
C768        C780   1.415       .  A
C768        C776   1.386       .  A
C769        C777   1.387       .  A
C770        C778   1.388       .  A
C770        C781   1.414       .  A
C771        C779   1.387       .  A
C772        C773   1.373       .  A
C772        H784   1.082       .  S
C773        H785   1.082       .  S
C774        C775   1.373       .  A
C774       H1762   1.082       .  S
C775        H787   1.082       .  S
C776        C777   1.371       .  A
C776        H788   1.082       .  S
C777        H789   1.083       .  S
C778        C779   1.370       .  A
C778        H790   1.083       .  S
C779        H791   1.083       .  S
C780       C1740   1.419   1_455  A
C783       C1742   1.419   1_455  A
C783        C798   1.482       .  S
H786       C1750   1.082       .  S
C794        C795   1.403   1_556  A
C794        C799   1.404       .  A
C794        C880   1.482       .  S
C795        H800   1.084       .  S
C796        C797   1.400       .  A
C796        C866   1.480       .  S
C797        C798   1.402       .  A
C797        H801   1.084       .  S
C799        H802   1.083       .  S
O803       Zr815   2.447       .  S
O803        C805   1.287       .  A
O804       Zr841   2.419       .  S
O804        C805   1.285       .  A
C805        C967   1.471       .  S
O806       Zr818   2.459       .  S
O806        C808   1.290       .  A
O807       Zr842   2.402       .  S
O807        C808   1.283       .  A
C808        C925   1.480       .  S
O809       Zr818   2.455       .  S
O809        C811   1.290       .  A
O810       Zr841   2.415       .  S
O810        C811   1.285       .  A
C811        C939   1.481       .  S
O812       Zr815   2.452       .  S
O812        C814   1.289       .  A
O813       Zr842   2.416       .  S
O813        C814   1.285       .  A
C814        C953   1.480       .  S
Zr815       O816   2.434       .  S
Zr815       O817   2.437       .  S
Zr815       O821   2.377       .  S
Zr815       O822   2.376       .  S
Zr815       O845   2.373       .  S
Zr815       O847   2.376       .  S
O816        H859   0.990       .  S
O817        H858   0.990       .  S
O817        H862   0.990       .  S
Zr818       O819   2.435       .  S
Zr818       O820   2.434       .  S
Zr818       O822   2.375       .  S
Zr818       O821   2.378       .  S
Zr818       O846   2.377       .  S
Zr818       O848   2.376       .  S
O819        H860   0.990       .  S
O819        H863   0.990       .  S
O820        H853   0.990       .  S
O821       Zr841   2.378       .  S
O822       Zr842   2.380       .  S
O822        H849   0.966       .  S
O823       Zr835   2.454       .  S
O823        C825   1.290       .  A
O824       Zr842   2.409       .  S
O824        C825   1.284       .  A
C825        C897   1.478       .  S
O826       Zr838   2.449       .  S
O826        C828   1.289       .  A
O827       Zr841   2.420       .  S
O827        C828   1.285       .  A
C828        C883   1.475       .  S
O829       Zr838   2.450       .  S
O829        C831   1.289       .  A
O830       Zr842   2.411       .  S
O830        C831   1.284       .  A
C831        C869   1.472       .  S
O832       Zr835   2.449       .  S
O832        C834   1.288       .  A
O833       Zr841   2.412       .  S
O833        C834   1.285       .  A
C834        C911   1.478       .  S
Zr835       O836   2.436       .  S
Zr835       O837   2.435       .  S
Zr835       O843   2.369       .  S
Zr835       O844   2.373       .  S
Zr835       O847   2.378       .  S
Zr835       O845   2.378       .  S
O836        H856   0.990       .  S
O836        H861   0.990       .  S
O837        H857   0.990       .  S
Zr838       O839   2.435       .  S
Zr838       O840   2.434       .  S
Zr838       O844   2.373       .  S
Zr838       O843   2.375       .  S
Zr838       O848   2.375       .  S
Zr838       O846   2.377       .  S
O839        H855   0.990       .  S
O840        H854   0.990       .  S
O840        H864   0.990       .  S
Zr841       O844   2.376       .  S
Zr841       O846   2.384       .  S
Zr841       O847   2.380       .  S
Zr842       O843   2.378       .  S
Zr842       O845   2.374       .  S
Zr842       O848   2.378       .  S
O843        H851   0.966       .  S
O846        H850   0.967       .  S
O847        H852   0.966       .  S
C865        C866   1.405       .  A
C865        C870   1.403       .  A
C865        H872   1.084       .  S
C866        C867   1.416       .  A
C867        C868   1.398       .  A
C867        N874   1.440       .  S
C868        C869   1.402       .  A
C868        H873   1.085       .  S
C869        C870   1.417       .  A
C870        N871   1.439       .  S
N871        H875   1.046       .  S
N871        H876   1.042       .  S
N874        H877   1.043       .  S
N874        H878   1.046       .  S
C879        C880   1.405       .  A
C879        C884   1.406       .  A
C879        H886   1.084       .  S
C880        C881   1.415       .  A
C881        C882   1.400       .  A
C881        N888   1.433       .  S
C882        C883   1.402       .  A
C882        H887   1.084       .  S
C883        C884   1.411       .  A
C884        N885   1.439       .  S
N885        H889   1.046       .  S
N885        H890   1.045       .  S
N888        H891   1.045       .  S
N888        H892   1.044       .  S
C893        C894   1.405       .  A
C893        C898   1.401       .  A
C893        H900   1.084       .  S
C894        C895   1.413       .  A
C895        C896   1.409       .  A
C895        N902   1.438       .  S
C896        C897   1.404       .  A
C896        H901   1.084       .  S
C897        C898   1.412       .  A
C898        N899   1.439       .  S
N899        H903   1.046       .  S
N899        H904   1.045       .  S
N902        H905   1.046       .  S
N902        H906   1.045       .  S
C907        C908   1.406       .  A
C907        C912   1.411       .  A
C907        H914   1.084       .  S
C908        C909   1.408       .  A
C909        C910   1.394       .  A
C909        N916   1.434       .  S
C910        C911   1.400       .  A
C910        H915   1.079       .  S
C911        C912   1.414       .  A
C912        N913   1.437       .  S
N913        H917   1.046       .  S
N913        H918   1.045       .  S
N916        H919   1.046       .  S
N916        H920   1.046       .  S
C921        C922   1.405       .  A
C921        C926   1.403       .  A
C921        H928   1.084       .  S
C922        C923   1.415       .  A
C923        C924   1.409       .  A
C923        N930   1.438       .  S
C924        C925   1.403       .  A
C924        H929   1.084       .  S
C925        C926   1.413       .  A
C926        N927   1.439       .  S
N927        H931   1.046       .  S
N927        H932   1.045       .  S
N930        H933   1.046       .  S
N930        H934   1.046       .  S
C935        C936   1.405       .  A
C935        C940   1.403       .  A
C935        H942   1.084       .  S
C936        C937   1.415       .  A
C937        C938   1.409       .  A
C937        N944   1.438       .  S
C938        C939   1.404       .  A
C938        H943   1.084       .  S
C939        C940   1.412       .  A
C940        N941   1.439       .  S
N941        H945   1.046       .  S
N941        H946   1.045       .  S
N944        H947   1.046       .  S
N944        H948   1.046       .  S
C949        C950   1.406       .  A
C949        C954   1.408       .  A
C949        H956   1.083       .  S
C950        C951   1.414       .  A
C951        C952   1.405       .  A
C951        N958   1.438       .  S
C952        C953   1.403       .  A
C952        H957   1.084       .  S
C953        C954   1.411       .  A
C954        N955   1.438       .  S
N955        H959   1.046       .  S
N955        H960   1.046       .  S
N958        H961   1.046       .  S
N958        H962   1.046       .  S
C963        C964   1.401       .  A
C963        C968   1.398       .  A
C963        H970   1.084       .  S
C964        C965   1.418       .  A
C965        C966   1.403       .  A
C965        N972   1.439       .  S
C966        C967   1.402       .  A
C966        H971   1.084       .  S
C967        C968   1.414       .  A
C968        N969   1.438       .  S
N969        H973   1.045       .  S
N969        H974   1.043       .  S
N972        H975   1.042       .  S
N972        H976   1.046       .  S
C977        C978   1.399       .  A
C977        C982   1.400       .  A
C977       C1208   1.475       .  S
C978       C1223   1.402       .  A
C978        H983   1.084       .  S
C979       C1222   1.402   1_554  A
C979        C980   1.404       .  A
C979       C1025   1.483       .  S
C980        C981   1.407       .  A
C980        H984   1.084       .  S
C981       C1226   1.405   1_554  A
C981       C1194   1.488       .  S
C982       C1225   1.405       .  A
C982        H985   1.084       .  S
C986        C987   1.405       .  A
C986        C991   1.405       .  A
C986       C1180   1.489       .  S
C987       C1232   1.404       .  A
C987        H992   1.084       .  S
C988       C1231   1.405   1_554  A
C988        C989   1.403       .  A
C988       C1166   1.488       .  S
C989        C990   1.402   1_554  A
C989        H993   1.083       .  S
C990       C1235   1.404       .  A
C990       C1024   1.483   1_556  S
C991       C1234   1.405       .  A
C991        H994   1.083       .  S
C995        C996   1.401       .  A
C995       C1000   1.401       .  A
C995       C1152   1.481       .  S
C996       C1241   1.401       .  A
C996       H1001   1.084       .  S
C997       C1240   1.402   1_554  A
C997        C998   1.404       .  A
C997       C1138   1.486       .  S
C998        C999   1.404   1_554  A
C998       H1002   1.083       .  S
C999       C1244   1.403       .  A
C999       C1026   1.480       .  S
C1000      C1243   1.403       .  A
C1000      H1003   1.084       .  S
N1004      C1009   1.355       .  A
N1004      C1008   1.355   1_554  A
N1004      H1036   1.035       .  S
N1005      C1012   1.351       .  A
N1005      C1013   1.351       .  A
N1006      C1011   1.354       .  A
N1006      C1010   1.355       .  A
N1006      H1525   1.035   1_545  S
N1007      C1014   1.351       .  A
N1007      C1015   1.351   1_554  A
C1008      C1016   1.387       .  A
C1009      C1025   1.420       .  A
C1009      C1017   1.388   1_554  A
C1010      C1018   1.388   1_556  A
C1011      C1026   1.418       .  A
C1011      C1019   1.387   1_556  A
C1012      C1024   1.416   1_556  A
C1012      C1020   1.387   1_556  A
C1013      C1515   1.415       .  A
C1013      C1021   1.387       .  A
C1014      C1022   1.387       .  A
C1014      C1025   1.415       .  A
C1015      C1023   1.387   1_556  A
C1015      C1514   1.415       .  A
C1016      C1017   1.373       .  A
C1016      H1028   1.083       .  S
C1017      H1029   1.082       .  S
C1018      C1019   1.373       .  A
C1019      H1031   1.082       .  S
C1020      C1021   1.371   1_554  A
C1020      H1032   1.082       .  S
C1021      H1033   1.082       .  S
C1022      C1023   1.370       .  A
C1022      H1034   1.082       .  S
C1023      H1035   1.083       .  S
C1026      C1503   1.414   1_545  A
C1027      C1501   1.415   1_545  A
C1027      C1042   1.482       .  S
H1037      N1494   1.034       .  S
C1038      C1039   1.404       .  A
C1038      C1043   1.404       .  A
C1038      C1124   1.484       .  S
C1039      C1284   1.404       .  A
C1039      H1044   1.084       .  S
C1040      C1283   1.403       .  A
C1040      C1041   1.401       .  A
C1040      C1110   1.478       .  S
C1041      C1042   1.402   1_554  A
C1041      H1045   1.084       .  S
C1042      C1287   1.403       .  A
C1043      C1286   1.404       .  A
C1043      H1046   1.083       .  S
O1047     Zr1059   2.447       .  S
O1047      C1049   1.288       .  A
O1048     Zr1085   2.417       .  S
O1048      C1049   1.285       .  A
C1049      C1211   1.470       .  S
O1050     Zr1062   2.460       .  S
O1050      C1052   1.291       .  A
O1051     Zr1086   2.402       .  S
O1051      C1052   1.283       .  A
C1052      C1169   1.479       .  S
O1053     Zr1062   2.453       .  S
O1053      C1055   1.290       .  A
O1054     Zr1085   2.414       .  S
O1054      C1055   1.285       .  A
C1055      C1183   1.480       .  S
O1056     Zr1059   2.453       .  S
O1056      C1058   1.290       .  A
O1057     Zr1086   2.410       .  S
O1057      C1058   1.284       .  A
C1058      C1197   1.478       .  S
Zr1059     O1060   2.433       .  S
Zr1059     O1061   2.438       .  S
Zr1059     O1065   2.375       .  S
Zr1059     O1066   2.374       .  S
Zr1059     O1089   2.372       .  S
Zr1059     O1091   2.376       .  S
O1060      H1103   0.990       .  S
O1061      H1102   0.990       .  S
O1061      H1106   0.990       .  S
Zr1062     O1063   2.435       .  S
Zr1062     O1064   2.433       .  S
Zr1062     O1066   2.372       .  S
Zr1062     O1065   2.376       .  S
Zr1062     O1090   2.377       .  S
Zr1062     O1092   2.375       .  S
O1063      H1104   0.990       .  S
O1063      H1107   0.990       .  S
O1064      H1097   0.990       .  S
O1065     Zr1085   2.375       .  S
O1066     Zr1086   2.378       .  S
O1066      H1093   0.966       .  S
O1067     Zr1079   2.449       .  S
O1067      C1069   1.289       .  A
O1068     Zr1086   2.410       .  S
O1068      C1069   1.284       .  A
C1069      C1141   1.477       .  S
O1070     Zr1082   2.448       .  S
O1070      C1072   1.288       .  A
O1071     Zr1085   2.418       .  S
O1071      C1072   1.285       .  A
C1072      C1127   1.474       .  S
O1073     Zr1082   2.451       .  S
O1073      C1075   1.289       .  A
O1074     Zr1086   2.405       .  S
O1074      C1075   1.283       .  A
C1075      C1113   1.470       .  S
O1076     Zr1079   2.448       .  S
O1076      C1078   1.288       .  A
O1077     Zr1085   2.407       .  S
O1077      C1078   1.284       .  A
C1078      C1155   1.476       .  S
Zr1079     O1080   2.436       .  S
Zr1079     O1081   2.435       .  S
Zr1079     O1087   2.372       .  S
Zr1079     O1088   2.373       .  S
Zr1079     O1091   2.376       .  S
Zr1079     O1089   2.378       .  S
O1080      H1100   0.990       .  S
O1080      H1105   0.990       .  S
O1081      H1101   0.990       .  S
Zr1082     O1083   2.435       .  S
Zr1082     O1084   2.433       .  S
Zr1082     O1088   2.375       .  S
Zr1082     O1087   2.377       .  S
Zr1082     O1092   2.372       .  S
Zr1082     O1090   2.375       .  S
O1083      H1099   0.990       .  S
O1084      H1098   0.990       .  S
O1084      H1108   0.990       .  S
Zr1085     O1088   2.376       .  S
Zr1085     O1090   2.381       .  S
Zr1085     O1091   2.379       .  S
Zr1086     O1087   2.378       .  S
Zr1086     O1089   2.372       .  S
Zr1086     O1092   2.375       .  S
O1087      H1095   0.966       .  S
O1090      H1094   0.966       .  S
O1091      H1096   0.966       .  S
C1109      C1110   1.404       .  A
C1109      C1114   1.403       .  A
C1109      H1116   1.084       .  S
C1110      C1111   1.416       .  A
C1111      C1112   1.397       .  A
C1111      N1118   1.440       .  S
C1112      C1113   1.402       .  A
C1112      H1117   1.085       .  S
C1113      C1114   1.416       .  A
C1114      N1115   1.439       .  S
N1115      H1119   1.046       .  S
N1115      H1120   1.042       .  S
N1118      H1121   1.043       .  S
N1118      H1122   1.046       .  S
C1123      C1124   1.405       .  A
C1123      C1128   1.406       .  A
C1123      H1130   1.084       .  S
C1124      C1125   1.415       .  A
C1125      C1126   1.401       .  A
C1125      N1132   1.433       .  S
C1126      C1127   1.402       .  A
C1126      H1131   1.084       .  S
C1127      C1128   1.411       .  A
C1128      N1129   1.439       .  S
N1129      H1133   1.046       .  S
N1129      H1134   1.045       .  S
N1132      H1135   1.045       .  S
N1132      H1136   1.044       .  S
C1137      C1138   1.405       .  A
C1137      C1142   1.400       .  A
C1137      H1144   1.084       .  S
C1138      C1139   1.413       .  A
C1139      C1140   1.409       .  A
C1139      N1146   1.438       .  S
C1140      C1141   1.404       .  A
C1140      H1145   1.084       .  S
C1141      C1142   1.411       .  A
C1142      N1143   1.439       .  S
N1143      H1147   1.046       .  S
N1143      H1148   1.045       .  S
N1146      H1149   1.046       .  S
N1146      H1150   1.045       .  S
C1151      C1152   1.405       .  A
C1151      C1156   1.410       .  A
C1151      H1158   1.083       .  S
C1152      C1153   1.408       .  A
C1153      C1154   1.394       .  A
C1153      N1160   1.434       .  S
C1154      C1155   1.400       .  A
C1154      H1159   1.080       .  S
C1155      C1156   1.413       .  A
C1156      N1157   1.437       .  S
N1157      H1161   1.046       .  S
N1157      H1162   1.045       .  S
N1160      H1163   1.046       .  S
N1160      H1164   1.046       .  S
C1165      C1166   1.404       .  A
C1165      C1170   1.403       .  A
C1165      H1172   1.084       .  S
C1166      C1167   1.415       .  A
C1167      C1168   1.408       .  A
C1167      N1174   1.438       .  S
C1168      C1169   1.403       .  A
C1168      H1173   1.084       .  S
C1169      C1170   1.413       .  A
C1170      N1171   1.439       .  S
N1171      H1175   1.046       .  S
N1171      H1176   1.045       .  S
N1174      H1177   1.046       .  S
N1174      H1178   1.046       .  S
C1179      C1180   1.405       .  A
C1179      C1184   1.404       .  A
C1179      H1186   1.084       .  S
C1180      C1181   1.414       .  A
C1181      C1182   1.409       .  A
C1181      N1188   1.438       .  S
C1182      C1183   1.404       .  A
C1182      H1187   1.084       .  S
C1183      C1184   1.412       .  A
C1184      N1185   1.439       .  S
N1185      H1189   1.046       .  S
N1185      H1190   1.045       .  S
N1188      H1191   1.046       .  S
N1188      H1192   1.046       .  S
C1193      C1194   1.405       .  A
C1193      C1198   1.406       .  A
C1193      H1200   1.083       .  S
C1194      C1195   1.414       .  A
C1195      C1196   1.404       .  A
C1195      N1202   1.439       .  S
C1196      C1197   1.404       .  A
C1196      H1201   1.084       .  S
C1197      C1198   1.410       .  A
C1198      N1199   1.438       .  S
N1199      H1203   1.045       .  S
N1199      H1204   1.046       .  S
N1202      H1205   1.046       .  S
N1202      H1206   1.046       .  S
C1207      C1208   1.401       .  A
C1207      C1212   1.398       .  A
C1207      H1214   1.084       .  S
C1208      C1209   1.417       .  A
C1209      C1210   1.403       .  A
C1209      N1216   1.439       .  S
C1210      C1211   1.402       .  A
C1210      H1215   1.084       .  S
C1211      C1212   1.414       .  A
C1212      N1213   1.438       .  S
N1213      H1217   1.046       .  S
N1213      H1218   1.043       .  S
N1216      H1219   1.043       .  S
N1216      H1220   1.046       .  S
C1221      C1222   1.399       .  A
C1221      C1226   1.401       .  A
C1221      C1452   1.476       .  S
C1222      H1227   1.084       .  S
C1223      C1224   1.406       .  A
C1223      C1269   1.484       .  S
C1224      C1225   1.408       .  A
C1224      H1228   1.084       .  S
C1225      C1438   1.489       .  S
C1226      H1229   1.084       .  S
C1230      C1231   1.405       .  A
C1230      C1235   1.404       .  A
C1230      C1424   1.489       .  S
C1231      H1236   1.084       .  S
C1232      C1233   1.404       .  A
C1232      C1410   1.488       .  S
C1233      C1234   1.403       .  A
C1233      H1237   1.083       .  S
C1234      C1268   1.485       .  S
C1235      H1238   1.083       .  S
C1239      C1240   1.401       .  A
C1239      C1244   1.400       .  A
C1239      C1396   1.480       .  S
C1240      H1245   1.084       .  S
C1241      C1242   1.404       .  A
C1241      C1382   1.486       .  S
C1242      C1243   1.405       .  A
C1242      H1246   1.083       .  S
C1243      C1270   1.480       .  S
C1244      H1247   1.084       .  S
N1248      C1253   1.356       .  A
N1248      C1252   1.355       .  A
N1248      H1280   1.036       .  S
N1249      C1256   1.351       .  A
N1249      C1257   1.351       .  A
N1250      C1255   1.355       .  A
N1250      C1254   1.355       .  A
N1250      H1769   1.035   1_545  S
N1251      C1258   1.351       .  A
N1251      C1259   1.350       .  A
C1252      C1260   1.387       .  A
C1253      C1269   1.420       .  A
C1253      C1261   1.388       .  A
C1254      C1262   1.388       .  A
C1255      C1270   1.418       .  A
C1255      C1263   1.387       .  A
C1256      C1268   1.416       .  A
C1256      C1264   1.387       .  A
C1257      C1759   1.416       .  A
C1257      C1265   1.387       .  A
C1258      C1266   1.387       .  A
C1258      C1269   1.415       .  A
C1259      C1267   1.387       .  A
C1259      C1758   1.415       .  A
C1260      C1261   1.374       .  A
C1260      H1272   1.083       .  S
C1261      H1273   1.082       .  S
C1262      C1263   1.372       .  A
C1263      H1275   1.082       .  S
C1264      C1265   1.371       .  A
C1264      H1276   1.082       .  S
C1265      H1277   1.082       .  S
C1266      C1267   1.370       .  A
C1266      H1278   1.082       .  S
C1267      H1279   1.083       .  S
C1270      C1747   1.414   1_545  A
C1271      C1745   1.416   1_545  A
C1271      C1286   1.483       .  S
H1281      N1738   1.033       .  S
C1282      C1283   1.403   1_556  A
C1282      C1287   1.404       .  A
C1282      C1368   1.483       .  S
C1283      H1288   1.084       .  S
C1284      C1285   1.401       .  A
C1284      C1354   1.480       .  S
C1285      C1286   1.402       .  A
C1285      H1289   1.084       .  S
C1287      H1290   1.083       .  S
O1291     Zr1303   2.447       .  S
O1291      C1293   1.287       .  A
O1292     Zr1329   2.423       .  S
O1292      C1293   1.286       .  A
C1293      C1455   1.472       .  S
O1294     Zr1306   2.461       .  S
O1294      C1296   1.291       .  A
O1295     Zr1330   2.405       .  S
O1295      C1296   1.283       .  A
C1296      C1413   1.481       .  S
O1297     Zr1306   2.455       .  S
O1297      C1299   1.290       .  A
O1298     Zr1329   2.416       .  S
O1298      C1299   1.285       .  A
C1299      C1427   1.481       .  S
O1300     Zr1303   2.450       .  S
O1300      C1302   1.289       .  A
O1301     Zr1330   2.416       .  S
O1301      C1302   1.285       .  A
C1302      C1441   1.479       .  S
Zr1303     O1304   2.433       .  S
Zr1303     O1305   2.437       .  S
Zr1303     O1309   2.377       .  S
Zr1303     O1310   2.376       .  S
Zr1303     O1333   2.373       .  S
Zr1303     O1335   2.376       .  S
O1304      H1347   0.990       .  S
O1305      H1346   0.990       .  S
O1305      H1350   0.990       .  S
Zr1306     O1307   2.435       .  S
Zr1306     O1308   2.434       .  S
Zr1306     O1310   2.374       .  S
Zr1306     O1309   2.378       .  S
Zr1306     O1334   2.378       .  S
Zr1306     O1336   2.375       .  S
O1307      H1348   0.990       .  S
O1307      H1351   0.990       .  S
O1308      H1341   0.990       .  S
O1309     Zr1329   2.376       .  S
O1310     Zr1330   2.378       .  S
O1310      H1337   0.966       .  S
O1311     Zr1323   2.454       .  S
O1311      C1313   1.290       .  A
O1312     Zr1330   2.406       .  S
O1312      C1313   1.284       .  A
C1313      C1385   1.477       .  S
O1314     Zr1326   2.450       .  S
O1314      C1316   1.289       .  A
O1315     Zr1329   2.421       .  S
O1315      C1316   1.286       .  A
C1316      C1371   1.476       .  S
O1317     Zr1326   2.454       .  S
O1317      C1319   1.290       .  A
O1318     Zr1330   2.408       .  S
O1318      C1319   1.284       .  A
C1319      C1357   1.473       .  S
O1320     Zr1323   2.449       .  S
O1320      C1322   1.289       .  A
O1321     Zr1329   2.411       .  S
O1321      C1322   1.285       .  A
C1322      C1399   1.477       .  S
Zr1323     O1324   2.436       .  S
Zr1323     O1325   2.436       .  S
Zr1323     O1331   2.370       .  S
Zr1323     O1332   2.373       .  S
Zr1323     O1335   2.377       .  S
Zr1323     O1333   2.378       .  S
O1324      H1344   0.990       .  S
O1324      H1349   0.990       .  S
O1325      H1345   0.990       .  S
Zr1326     O1327   2.435       .  S
Zr1326     O1328   2.433       .  S
Zr1326     O1332   2.374       .  S
Zr1326     O1331   2.375       .  S
Zr1326     O1336   2.373       .  S
Zr1326     O1334   2.377       .  S
O1327      H1343   0.990       .  S
O1328      H1342   0.990       .  S
O1328      H1352   0.990       .  S
Zr1329     O1332   2.377       .  S
Zr1329     O1334   2.384       .  S
Zr1329     O1335   2.380       .  S
Zr1330     O1331   2.379       .  S
Zr1330     O1333   2.374       .  S
Zr1330     O1336   2.377       .  S
O1331      H1339   0.966       .  S
O1334      H1338   0.967       .  S
O1335      H1340   0.966       .  S
C1353      C1354   1.404       .  A
C1353      C1358   1.404       .  A
C1353      H1360   1.084       .  S
C1354      C1355   1.416       .  A
C1355      C1356   1.399       .  A
C1355      N1362   1.440       .  S
C1356      C1357   1.403       .  A
C1356      H1361   1.085       .  S
C1357      C1358   1.417       .  A
C1358      N1359   1.439       .  S
N1359      H1363   1.046       .  S
N1359      H1364   1.042       .  S
N1362      H1365   1.043       .  S
N1362      H1366   1.046       .  S
C1367      C1368   1.405       .  A
C1367      C1372   1.406       .  A
C1367      H1374   1.084       .  S
C1368      C1369   1.415       .  A
C1369      C1370   1.401       .  A
C1369      N1376   1.433       .  S
C1370      C1371   1.402       .  A
C1370      H1375   1.084       .  S
C1371      C1372   1.412       .  A
C1372      N1373   1.439       .  S
N1373      H1377   1.046       .  S
N1373      H1378   1.045       .  S
N1376      H1379   1.046       .  S
N1376      H1380   1.044       .  S
C1381      C1382   1.405       .  A
C1381      C1386   1.400       .  A
C1381      H1388   1.084       .  S
C1382      C1383   1.413       .  A
C1383      C1384   1.409       .  A
C1383      N1390   1.438       .  S
C1384      C1385   1.404       .  A
C1384      H1389   1.084       .  S
C1385      C1386   1.412       .  A
C1386      N1387   1.439       .  S
N1387      H1391   1.046       .  S
N1387      H1392   1.045       .  S
N1390      H1393   1.046       .  S
N1390      H1394   1.045       .  S
C1395      C1396   1.405       .  A
C1395      C1400   1.411       .  A
C1395      H1402   1.084       .  S
C1396      C1397   1.407       .  A
C1397      C1398   1.394       .  A
C1397      N1404   1.434       .  S
C1398      C1399   1.400       .  A
C1398      H1403   1.079       .  S
C1399      C1400   1.414       .  A
C1400      N1401   1.437       .  S
N1401      H1405   1.046       .  S
N1401      H1406   1.045       .  S
N1404      H1407   1.046       .  S
N1404      H1408   1.046       .  S
C1409      C1410   1.405       .  A
C1409      C1414   1.404       .  A
C1409      H1416   1.084       .  S
C1410      C1411   1.414       .  A
C1411      C1412   1.409       .  A
C1411      N1418   1.438       .  S
C1412      C1413   1.403       .  A
C1412      H1417   1.084       .  S
C1413      C1414   1.413       .  A
C1414      N1415   1.439       .  S
N1415      H1419   1.046       .  S
N1415      H1420   1.045       .  S
N1418      H1421   1.046       .  S
N1418      H1422   1.046       .  S
C1423      C1424   1.405       .  A
C1423      C1428   1.403       .  A
C1423      H1430   1.084       .  S
C1424      C1425   1.415       .  A
C1425      C1426   1.409       .  A
C1425      N1432   1.438       .  S
C1426      C1427   1.404       .  A
C1426      H1431   1.084       .  S
C1427      C1428   1.412       .  A
C1428      N1429   1.439       .  S
N1429      H1433   1.046       .  S
N1429      H1434   1.045       .  S
N1432      H1435   1.046       .  S
N1432      H1436   1.046       .  S
C1437      C1438   1.405       .  A
C1437      C1442   1.408       .  A
C1437      H1444   1.083       .  S
C1438      C1439   1.415       .  A
C1439      C1440   1.405       .  A
C1439      N1446   1.438       .  S
C1440      C1441   1.403       .  A
C1440      H1445   1.084       .  S
C1441      C1442   1.411       .  A
C1442      N1443   1.438       .  S
N1443      H1447   1.046       .  S
N1443      H1448   1.046       .  S
N1446      H1449   1.046       .  S
N1446      H1450   1.046       .  S
C1451      C1452   1.401       .  A
C1451      C1456   1.398       .  A
C1451      H1458   1.084       .  S
C1452      C1453   1.418       .  A
C1453      C1454   1.405       .  A
C1453      N1460   1.439       .  S
C1454      C1455   1.402       .  A
C1454      H1459   1.084       .  S
C1455      C1456   1.414       .  A
C1456      N1457   1.438       .  S
N1457      H1461   1.045       .  S
N1457      H1462   1.043       .  S
N1460      H1463   1.043       .  S
N1460      H1464   1.046       .  S
C1465      C1466   1.399       .  A
C1465      C1470   1.401       .  A
C1465      C1696   1.474       .  S
C1466      C1711   1.401       .  A
C1466      H1471   1.084       .  S
C1467      C1710   1.402   1_554  A
C1467      C1468   1.405       .  A
C1467      C1513   1.483       .  S
C1468      C1469   1.407       .  A
C1468      H1472   1.084       .  S
C1469      C1714   1.404   1_554  A
C1469      C1682   1.487       .  S
C1470      C1713   1.405       .  A
C1470      H1473   1.084       .  S
C1474      C1475   1.405       .  A
C1474      C1479   1.406       .  A
C1474      C1668   1.490       .  S
C1475      C1720   1.404       .  A
C1475      H1480   1.084       .  S
C1476      C1719   1.404   1_554  A
C1476      C1477   1.404       .  A
C1476      C1654   1.488       .  S
C1477      C1478   1.403   1_554  A
C1477      H1481   1.083       .  S
C1478      C1723   1.404       .  A
C1478      C1512   1.483       .  S
C1479      C1722   1.405       .  A
C1479      H1482   1.083       .  S
C1483      C1484   1.401       .  A
C1483      C1488   1.401       .  A
C1483      C1640   1.480       .  S
C1484      C1729   1.402       .  A
C1484      H1489   1.084       .  S
C1485      C1728   1.403   1_554  A
C1485      C1486   1.404       .  A
C1485      C1626   1.487       .  S
C1486      C1487   1.404   1_554  A
C1486      H1490   1.083       .  S
C1487      C1732   1.403       .  A
C1487      C1514   1.480       .  S
C1488      C1731   1.403       .  A
C1488      H1491   1.084       .  S
N1492      C1497   1.355       .  A
N1492      C1496   1.355       .  A
N1492      H1524   1.034       .  S
N1493      C1500   1.351       .  A
N1493      C1501   1.351       .  A
N1494      C1499   1.354       .  A
N1494      C1498   1.355       .  A
N1495      C1502   1.351       .  A
N1495      C1503   1.350   1_554  A
C1496      C1504   1.387   1_554  A
C1497      C1513   1.420       .  A
C1497      C1505   1.388   1_554  A
C1498      C1506   1.388   1_556  A
C1499      C1514   1.418       .  A
C1499      C1507   1.387   1_556  A
C1500      C1512   1.415       .  A
C1500      C1508   1.387       .  A
C1501      C1509   1.387       .  A
C1502      C1510   1.387       .  A
C1502      C1513   1.415       .  A
C1503      C1511   1.387   1_556  A
C1504      C1505   1.373       .  A
C1504      H1516   1.082       .  S
C1505      H1517   1.082       .  S
C1506      C1507   1.373       .  A
C1507      H1519   1.082       .  S
C1508      C1509   1.371       .  A
C1508      H1520   1.082   1_556  S
C1509      H1521   1.082       .  S
C1510      C1511   1.370       .  A
C1510      H1522   1.082       .  S
C1511      H1523   1.083   1_554  S
C1515      C1530   1.483       .  S
C1526      C1527   1.404       .  A
C1526      C1531   1.403       .  A
C1526      C1612   1.483       .  S
C1527      C1772   1.405       .  A
C1527      H1532   1.084       .  S
C1528      C1771   1.404       .  A
C1528      C1529   1.401       .  A
C1528      C1598   1.479       .  S
C1529      C1530   1.403   1_554  A
C1529      H1533   1.084       .  S
C1530      C1775   1.404       .  A
C1531      C1774   1.403       .  A
C1531      H1534   1.083       .  S
O1535     Zr1547   2.445       .  S
O1535      C1537   1.287       .  A
O1536     Zr1573   2.416       .  S
O1536      C1537   1.285       .  A
C1537      C1699   1.468       .  S
O1538     Zr1550   2.462       .  S
O1538      C1540   1.291       .  A
O1539     Zr1574   2.405       .  S
O1539      C1540   1.283       .  A
C1540      C1657   1.481       .  S
O1541     Zr1550   2.457       .  S
O1541      C1543   1.291       .  A
O1542     Zr1573   2.414       .  S
O1542      C1543   1.285       .  A
C1543      C1671   1.481       .  S
O1544     Zr1547   2.450       .  S
O1544      C1546   1.289       .  A
O1545     Zr1574   2.412       .  S
O1545      C1546   1.284       .  A
C1546      C1685   1.478       .  S
Zr1547     O1548   2.433       .  S
Zr1547     O1549   2.437       .  S
Zr1547     O1553   2.376       .  S
Zr1547     O1554   2.375       .  S
Zr1547     O1577   2.371       .  S
Zr1547     O1579   2.375       .  S
O1548      H1591   0.990       .  S
O1549      H1590   0.990       .  S
O1549      H1594   0.990       .  S
Zr1550     O1551   2.435       .  S
Zr1550     O1552   2.434       .  S
Zr1550     O1554   2.373       .  S
Zr1550     O1553   2.376       .  S
Zr1550     O1578   2.377       .  S
Zr1550     O1580   2.375       .  S
O1551      H1592   0.990       .  S
O1551      H1595   0.990       .  S
O1552      H1585   0.990       .  S
O1553     Zr1573   2.377       .  S
O1554     Zr1574   2.379       .  S
O1554      H1581   0.966       .  S
O1555     Zr1567   2.448       .  S
O1555      C1557   1.289       .  A
O1556     Zr1574   2.410       .  S
O1556      C1557   1.284       .  A
C1557      C1629   1.476       .  S
O1558     Zr1570   2.446       .  S
O1558      C1560   1.288       .  A
O1559     Zr1573   2.420       .  S
O1559      C1560   1.285       .  A
C1560      C1615   1.474       .  S
O1561     Zr1570   2.450       .  S
O1561      C1563   1.289       .  A
O1562     Zr1574   2.406       .  S
O1562      C1563   1.283       .  A
C1563      C1601   1.471       .  S
O1564     Zr1567   2.447       .  S
O1564      C1566   1.288       .  A
O1565     Zr1573   2.412       .  S
O1565      C1566   1.285       .  A
C1566      C1643   1.476       .  S
Zr1567     O1568   2.435       .  S
Zr1567     O1569   2.435       .  S
Zr1567     O1575   2.371       .  S
Zr1567     O1576   2.373       .  S
Zr1567     O1579   2.375       .  S
Zr1567     O1577   2.378       .  S
O1568      H1588   0.990       .  S
O1568      H1593   0.990       .  S
O1569      H1589   0.990       .  S
Zr1570     O1571   2.435       .  S
Zr1570     O1572   2.433       .  S
Zr1570     O1576   2.375       .  S
Zr1570     O1575   2.375       .  S
Zr1570     O1580   2.372       .  S
Zr1570     O1578   2.375       .  S
O1571      H1587   0.990       .  S
O1572      H1586   0.990       .  S
O1572      H1596   0.990       .  S
Zr1573     O1576   2.376       .  S
Zr1573     O1578   2.381       .  S
Zr1573     O1579   2.380       .  S
Zr1574     O1575   2.378       .  S
Zr1574     O1577   2.374       .  S
Zr1574     O1580   2.375       .  S
O1575      H1583   0.966       .  S
O1578      H1582   0.966       .  S
O1579      H1584   0.966       .  S
C1597      C1598   1.405       .  A
C1597      C1602   1.404       .  A
C1597      H1604   1.084       .  S
C1598      C1599   1.416       .  A
C1599      C1600   1.397       .  A
C1599      N1606   1.440       .  S
C1600      C1601   1.402       .  A
C1600      H1605   1.085       .  S
C1601      C1602   1.417       .  A
C1602      N1603   1.439       .  S
N1603      H1607   1.046       .  S
N1603      H1608   1.042       .  S
N1606      H1609   1.043       .  S
N1606      H1610   1.046       .  S
C1611      C1612   1.404       .  A
C1611      C1616   1.406       .  A
C1611      H1618   1.084       .  S
C1612      C1613   1.416       .  A
C1613      C1614   1.401       .  A
C1613      N1620   1.433       .  S
C1614      C1615   1.402       .  A
C1614      H1619   1.084       .  S
C1615      C1616   1.411       .  A
C1616      N1617   1.439       .  S
N1617      H1621   1.046       .  S
N1617      H1622   1.045       .  S
N1620      H1623   1.045       .  S
N1620      H1624   1.044       .  S
C1625      C1626   1.405       .  A
C1625      C1630   1.400       .  A
C1625      H1632   1.084       .  S
C1626      C1627   1.414       .  A
C1627      C1628   1.409       .  A
C1627      N1634   1.438       .  S
C1628      C1629   1.404       .  A
C1628      H1633   1.084       .  S
C1629      C1630   1.411       .  A
C1630      N1631   1.439       .  S
N1631      H1635   1.046       .  S
N1631      H1636   1.045       .  S
N1634      H1637   1.046       .  S
N1634      H1638   1.045       .  S
C1639      C1640   1.405       .  A
C1639      C1644   1.411       .  A
C1639      H1646   1.084       .  S
C1640      C1641   1.408       .  A
C1641      C1642   1.394       .  A
C1641      N1648   1.434       .  S
C1642      C1643   1.400       .  A
C1642      H1647   1.080       .  S
C1643      C1644   1.413       .  A
C1644      N1645   1.437       .  S
N1645      H1649   1.046       .  S
N1645      H1650   1.045       .  S
N1648      H1651   1.046       .  S
N1648      H1652   1.046       .  S
C1653      C1654   1.404       .  A
C1653      C1658   1.403       .  A
C1653      H1660   1.084       .  S
C1654      C1655   1.415       .  A
C1655      C1656   1.409       .  A
C1655      N1662   1.438       .  S
C1656      C1657   1.403       .  A
C1656      H1661   1.084       .  S
C1657      C1658   1.413       .  A
C1658      N1659   1.439       .  S
N1659      H1663   1.046       .  S
N1659      H1664   1.045       .  S
N1662      H1665   1.046       .  S
N1662      H1666   1.045       .  S
C1667      C1668   1.405       .  A
C1667      C1672   1.404       .  A
C1667      H1674   1.084       .  S
C1668      C1669   1.415       .  A
C1669      C1670   1.409       .  A
C1669      N1676   1.438       .  S
C1670      C1671   1.404       .  A
C1670      H1675   1.084       .  S
C1671      C1672   1.412       .  A
C1672      N1673   1.439       .  S
N1673      H1677   1.046       .  S
N1673      H1678   1.045       .  S
N1676      H1679   1.046       .  S
N1676      H1680   1.046       .  S
C1681      C1682   1.405       .  A
C1681      C1686   1.406       .  A
C1681      H1688   1.083       .  S
C1682      C1683   1.414       .  A
C1683      C1684   1.404       .  A
C1683      N1690   1.439       .  S
C1684      C1685   1.403       .  A
C1684      H1689   1.084       .  S
C1685      C1686   1.411       .  A
C1686      N1687   1.438       .  S
N1687      H1691   1.046       .  S
N1687      H1692   1.046       .  S
N1690      H1693   1.046       .  S
N1690      H1694   1.046       .  S
C1695      C1696   1.400       .  A
C1695      C1700   1.397       .  A
C1695      H1702   1.084       .  S
C1696      C1697   1.418       .  A
C1697      C1698   1.403       .  A
C1697      N1704   1.439       .  S
C1698      C1699   1.401       .  A
C1698      H1703   1.084       .  S
C1699      C1700   1.413       .  A
C1700      N1701   1.438       .  S
N1701      H1705   1.046       .  S
N1701      H1706   1.043       .  S
N1704      H1707   1.043       .  S
N1704      H1708   1.046       .  S
C1709      C1710   1.399       .  A
C1709      C1714   1.400       .  A
C1709      C1940   1.475       .  S
C1710      H1715   1.084       .  S
C1711      C1712   1.405       .  A
C1711      C1757   1.482       .  S
C1712      C1713   1.407       .  A
C1712      H1716   1.084       .  S
C1713      C1926   1.489       .  S
C1714      H1717   1.084       .  S
C1718      C1719   1.405       .  A
C1718      C1723   1.404       .  A
C1718      C1912   1.488       .  S
C1719      H1724   1.084       .  S
C1720      C1721   1.404       .  A
C1720      C1898   1.488       .  S
C1721      C1722   1.403       .  A
C1721      H1725   1.084       .  S
C1722      C1756   1.486       .  S
C1723      H1726   1.083       .  S
C1727      C1728   1.402       .  A
C1727      C1732   1.401       .  A
C1727      C1884   1.482       .  S
C1728      H1733   1.084       .  S
C1729      C1730   1.404       .  A
C1729      C1870   1.487       .  S
C1730      C1731   1.404       .  A
C1730      H1734   1.083       .  S
C1731      C1758   1.480       .  S
C1732      H1735   1.084       .  S
N1736      C1741   1.355       .  A
N1736      C1740   1.355       .  A
N1736      H1768   1.035       .  S
N1737      C1744   1.352       .  A
N1737      C1745   1.351       .  A
N1738      C1743   1.354       .  A
N1738      C1742   1.355       .  A
N1739      C1746   1.350       .  A
N1739      C1747   1.350       .  A
C1740      C1748   1.387       .  A
C1741      C1757   1.420       .  A
C1741      C1749   1.388       .  A
C1742      C1750   1.388       .  A
C1743      C1758   1.418       .  A
C1743      C1751   1.388       .  A
C1744      C1756   1.416       .  A
C1744      C1752   1.386       .  A
C1745      C1753   1.387       .  A
C1746      C1754   1.387       .  A
C1746      C1757   1.415       .  A
C1747      C1755   1.387       .  A
C1748      C1749   1.374       .  A
C1748      H1760   1.083       .  S
C1749      H1761   1.082       .  S
C1750      C1751   1.373       .  A
C1751      H1763   1.082       .  S
C1752      C1753   1.372       .  A
C1752      H1764   1.082       .  S
C1753      H1765   1.082       .  S
C1754      C1755   1.370       .  A
C1754      H1766   1.082       .  S
C1755      H1767   1.083       .  S
C1759      C1774   1.483       .  S
C1770      C1771   1.403   1_556  A
C1770      C1775   1.404       .  A
C1770      C1856   1.483       .  S
C1771      H1776   1.084       .  S
C1772      C1773   1.401       .  A
C1772      C1842   1.481       .  S
C1773      C1774   1.403       .  A
C1773      H1777   1.084       .  S
C1775      H1778   1.083       .  S
O1779     Zr1791   2.446       .  S
O1779      C1781   1.287       .  A
O1780     Zr1817   2.420       .  S
O1780      C1781   1.286       .  A
C1781      C1943   1.471       .  S
O1782     Zr1794   2.458       .  S
O1782      C1784   1.290       .  A
O1783     Zr1818   2.402       .  S
O1783      C1784   1.283       .  A
C1784      C1901   1.478       .  S
O1785     Zr1794   2.451       .  S
O1785      C1787   1.289       .  A
O1786     Zr1817   2.416       .  S
O1786      C1787   1.285       .  A
C1787      C1915   1.479       .  S
O1788     Zr1791   2.450       .  S
O1788      C1790   1.289       .  A
O1789     Zr1818   2.415       .  S
O1789      C1790   1.285       .  A
C1790      C1929   1.479       .  S
Zr1791     O1792   2.433       .  S
Zr1791     O1793   2.437       .  S
Zr1791     O1797   2.377       .  S
Zr1791     O1798   2.375       .  S
Zr1791     O1821   2.372       .  S
Zr1791     O1823   2.375       .  S
O1792      H1835   0.990       .  S
O1793      H1834   0.990       .  S
O1793      H1838   0.990       .  S
Zr1794     O1795   2.436       .  S
Zr1794     O1796   2.434       .  S
Zr1794     O1798   2.372       .  S
Zr1794     O1797   2.378       .  S
Zr1794     O1822   2.379       .  S
Zr1794     O1824   2.376       .  S
O1795      H1836   0.990       .  S
O1795      H1839   0.990       .  S
O1796      H1829   0.990       .  S
O1797     Zr1817   2.378       .  S
O1798     Zr1818   2.379       .  S
O1798      H1825   0.966       .  S
O1799     Zr1811   2.451       .  S
O1799      C1801   1.289       .  A
O1800     Zr1818   2.409       .  S
O1800      C1801   1.284       .  A
C1801      C1873   1.478       .  S
O1802     Zr1814   2.452       .  S
O1802      C1804   1.289       .  A
O1803     Zr1817   2.420       .  S
O1803      C1804   1.285       .  A
C1804      C1859   1.476       .  S
O1805     Zr1814   2.454       .  S
O1805      C1807   1.290       .  A
O1806     Zr1818   2.409       .  S
O1806      C1807   1.284       .  A
C1807      C1845   1.473       .  S
O1808     Zr1811   2.448       .  S
O1808      C1810   1.288       .  A
O1809     Zr1817   2.412       .  S
O1809      C1810   1.285       .  A
C1810      C1887   1.478       .  S
Zr1811     O1812   2.436       .  S
Zr1811     O1813   2.435       .  S
Zr1811     O1819   2.370       .  S
Zr1811     O1820   2.374       .  S
Zr1811     O1823   2.376       .  S
Zr1811     O1821   2.376       .  S
O1812      H1832   0.990       .  S
O1812      H1837   0.990       .  S
O1813      H1833   0.990       .  S
Zr1814     O1815   2.434       .  S
Zr1814     O1816   2.434       .  S
Zr1814     O1820   2.374       .  S
Zr1814     O1819   2.376       .  S
Zr1814     O1824   2.374       .  S
Zr1814     O1822   2.376       .  S
O1815      H1831   0.990       .  S
O1816      H1830   0.990       .  S
O1816      H1840   0.990       .  S
Zr1817     O1820   2.376       .  S
Zr1817     O1822   2.383       .  S
Zr1817     O1823   2.379       .  S
Zr1818     O1819   2.378       .  S
Zr1818     O1821   2.371       .  S
Zr1818     O1824   2.378       .  S
O1819      H1827   0.966       .  S
O1822      H1826   0.967       .  S
O1823      H1828   0.966       .  S
C1841      C1842   1.405       .  A
C1841      C1846   1.404       .  A
C1841      H1848   1.084       .  S
C1842      C1843   1.417       .  A
C1843      C1844   1.399       .  A
C1843      N1850   1.440       .  S
C1844      C1845   1.403       .  A
C1844      H1849   1.085       .  S
C1845      C1846   1.417       .  A
C1846      N1847   1.439       .  S
N1847      H1851   1.046       .  S
N1847      H1852   1.042       .  S
N1850      H1853   1.043       .  S
N1850      H1854   1.046       .  S
C1855      C1856   1.405       .  A
C1855      C1860   1.406       .  A
C1855      H1862   1.084       .  S
C1856      C1857   1.415       .  A
C1857      C1858   1.401       .  A
C1857      N1864   1.433       .  S
C1858      C1859   1.402       .  A
C1858      H1863   1.084       .  S
C1859      C1860   1.412       .  A
C1860      N1861   1.439       .  S
N1861      H1865   1.046       .  S
N1861      H1866   1.045       .  S
N1864      H1867   1.046       .  S
N1864      H1868   1.044       .  S
C1869      C1870   1.405       .  A
C1869      C1874   1.400       .  A
C1869      H1876   1.084       .  S
C1870      C1871   1.413       .  A
C1871      C1872   1.409       .  A
C1871      N1878   1.438       .  S
C1872      C1873   1.404       .  A
C1872      H1877   1.084       .  S
C1873      C1874   1.412       .  A
C1874      N1875   1.439       .  S
N1875      H1879   1.046       .  S
N1875      H1880   1.045       .  S
N1878      H1881   1.046       .  S
N1878      H1882   1.045       .  S
C1883      C1884   1.406       .  A
C1883      C1888   1.411       .  A
C1883      H1890   1.084       .  S
C1884      C1885   1.408       .  A
C1885      C1886   1.395       .  A
C1885      N1892   1.434       .  S
C1886      C1887   1.400       .  A
C1886      H1891   1.080       .  S
C1887      C1888   1.414       .  A
C1888      N1889   1.437       .  S
N1889      H1893   1.046       .  S
N1889      H1894   1.045       .  S
N1892      H1895   1.046       .  S
N1892      H1896   1.046       .  S
C1897      C1898   1.405       .  A
C1897      C1902   1.403       .  A
C1897      H1904   1.084       .  S
C1898      C1899   1.414       .  A
C1899      C1900   1.408       .  A
C1899      N1906   1.438       .  S
C1900      C1901   1.403       .  A
C1900      H1905   1.084       .  S
C1901      C1902   1.413       .  A
C1902      N1903   1.439       .  S
N1903      H1907   1.046       .  S
N1903      H1908   1.045       .  S
N1906      H1909   1.046       .  S
N1906      H1910   1.046       .  S
C1911      C1912   1.405       .  A
C1911      C1916   1.403       .  A
C1911      H1918   1.084       .  S
C1912      C1913   1.414       .  A
C1913      C1914   1.409       .  A
C1913      N1920   1.438       .  S
C1914      C1915   1.404       .  A
C1914      H1919   1.084       .  S
C1915      C1916   1.411       .  A
C1916      N1917   1.439       .  S
N1917      H1921   1.046       .  S
N1917      H1922   1.045       .  S
N1920      H1923   1.046       .  S
N1920      H1924   1.046       .  S
C1925      C1926   1.406       .  A
C1925      C1930   1.408       .  A
C1925      H1932   1.083       .  S
C1926      C1927   1.414       .  A
C1927      C1928   1.404       .  A
C1927      N1934   1.438       .  S
C1928      C1929   1.403       .  A
C1928      H1933   1.084       .  S
C1929      C1930   1.411       .  A
C1930      N1931   1.438       .  S
N1931      H1935   1.046       .  S
N1931      H1936   1.046       .  S
N1934      H1937   1.046       .  S
N1934      H1938   1.046       .  S
C1939      C1940   1.401       .  A
C1939      C1944   1.399       .  A
C1939      H1946   1.084       .  S
C1940      C1941   1.417       .  A
C1941      C1942   1.403       .  A
C1941      N1948   1.439       .  S
C1942      C1943   1.401       .  A
C1942      H1947   1.084       .  S
C1943      C1944   1.414       .  A
C1944      N1945   1.438       .  S
N1945      H1949   1.045       .  S
N1945      H1950   1.043       .  S
N1948      H1951   1.043       .  S
N1948      H1952   1.046       .  S
