geometry optimzed in LAMMPS
_audit_creation_date              2020-11-30 
_audit_creation_method            'lammps2cif' 
_symmetry_space_group_name_H-M    'P1' 
_symmetry_Int_Tables_number       1 
_symmetry_cell_setting            triclinic 
loop_ 
_symmetry_equiv_pos_as_xyz 
  x,y,z 
_cell_length_a                    28.853141635710703 
_cell_length_b                    28.69303077504086 
_cell_length_c                    22.82105392589555 
_cell_angle_alpha                 90.34048244638531 
_cell_angle_beta                  89.45283336815282 
_cell_angle_gamma                 89.86306909427887 
loop_ 
_atom_site_label 
_atom_site_type_symbol 
_atom_site_fract_x 
_atom_site_fract_y 
_atom_site_fract_z 
_atom_site_charge 
C1          C  0.74196333  0.73613908  0.73627763    -0.00050
C2          C  0.77030948  0.76622277  0.76869938    -0.00060
C3          C  0.73733707  0.25541249  0.73321515    -0.00050
C4          C  0.76562414  0.22714412  0.76819151    -0.00060
C5          C  0.25563610  0.26362500  0.71836831    -0.00050
C6          C  0.22738791  0.23775750  0.75634826    -0.00060
C7          C  0.24369790  0.76242322  0.77090169    -0.00050
C8          C  0.27233025  0.73204688  0.73906156    -0.00060
C9          C  0.24127215  0.76524362  0.22519138    -0.00050
C10         C  0.26904965  0.73895094  0.26293772    -0.00060
C11         C  0.77373753  0.76411652  0.24018138    -0.00050
C12         C  0.74359320  0.73978725  0.27708102    -0.00060
C13         C  0.74037879  0.26801164  0.26655457    -0.00050
C14         C  0.77061542  0.24262339  0.23033210    -0.00060
O15         O  0.46487346  0.72537947  0.57100164    -0.82420
C16         C  0.50750991  0.87006787  0.42475286     0.96940
O17         O  0.47912529  0.87385103  0.46631092    -0.71530
O18         O  0.43722101  0.80000591  0.42659053    -0.75130
Al19       Al  0.45377950  0.82131888  0.50192315     1.48980
C20         C  0.42945205  0.75784751  0.41492955     0.92190
O21         O  0.54483769  0.72909385  0.42685828    -0.81350
O22         O  0.57502889  0.79582839  0.57640230    -0.74900
Al23       Al  0.50540705  0.72876659  0.49924093     1.90120
O24         O  0.59524274  0.77598352  0.46466125    -0.73970
O25         O  0.53528348  0.87070141  0.54754054    -0.73820
O26         O  0.54476078  0.84743584  0.43110093    -0.79480
O27         O  0.46687179  0.84446878  0.57671926    -0.77690
O28         O  0.50599635  0.78941490  0.50226086    -1.13820
O29         O  0.41700550  0.77669760  0.53686581    -0.73020
C30         C  0.42675111  0.74803404  0.57590235     0.97700
C31         C  0.58285315  0.75149185  0.42206670     0.94100
Al32       Al  0.55891139  0.82039653  0.50446058     1.55560
O33         O  0.45019877  0.72572290  0.44425189    -0.77640
C34         C  0.50165377  0.87033451  0.58318044     0.98270
C35         C  0.58229053  0.75331241  0.58465113     0.93150
O36         O  0.56080124  0.72243093  0.55373542    -0.82960
O37         O  0.78429167  0.95371308  0.07187059    -0.82420
C38         C  0.64275622  0.02590585  0.94164102     0.96940
O39         O  0.63915474  0.98849603  0.96985770    -0.71530
O40         O  0.70740411  0.94441938  0.92660012    -0.75130
Al41       Al  0.68783282  0.95498697  0.00322927     1.48980
C42         C  0.74710458  0.92988881  0.91408780     0.92190
O43         O  0.78277840  0.04162639  0.93659293    -0.81350
O44         O  0.72711878  0.05951554  0.09971418    -0.74900
Al45       Al  0.78363386  0.99803880  0.00449295     1.89040
O46         O  0.74563575  0.09395623  0.98802161    -0.73970
O47         O  0.64675193  0.03599650  0.06788708    -0.73820
O48         O  0.66836125  0.05878403  0.95695974    -0.79480
O49         O  0.66487672  0.96218279  0.07943124    -0.77690
O50         O  0.72353506  0.00360130  0.01129999    -1.13820
O51         O  0.72985561  0.91084006  0.03375083    -0.73020
C52         C  0.75812771  0.91758876  0.07442351     0.97700
C53         C  0.76325828  0.08173646  0.93948945     0.94100
Al54       Al  0.69868887  0.05848649  0.02729516     1.55560
O55         O  0.78152435  0.94487323  0.94441262    -0.77640
C56         C  0.64178765  0.99763793  0.09337323     0.98270
C57         C  0.76901439  0.06968894  0.10097108     0.93150
O58         O  0.79691982  0.05099789  0.06291017    -0.82960
O59         O  0.21948442  0.04581513  0.05584413    -0.82420
C60         C  0.35203577  0.97816293  0.89802773     0.96940
O61         O  0.35169457  0.01828087  0.92104034    -0.71530
O62         O  0.27515812  0.05453975  0.89211652    -0.75130
Al63       Al  0.30497123  0.04972504  0.96382445     1.48980
C64         C  0.23407246  0.06818358  0.89150425     0.92190
O65         O  0.20956444  0.95650939  0.92211498    -0.81350
O66         O  0.28403371  0.94354370  0.07129058    -0.74900
Al67       Al  0.21383126  0.00097641  0.98947421     1.90120
O68         O  0.25454053  0.90780090  0.96661830    -0.73970
O69         O  0.35700659  0.97416144  0.02046065    -0.73820
O70         O  0.32617058  0.94602251  0.91562262    -0.79480
O71         O  0.33654761  0.04703907  0.03382385    -0.77690
O72         O  0.27401799  0.99916217  0.98207041    -1.13820
O73         O  0.26412446  0.09201220  0.00434446    -0.73020
C74         C  0.24249918  0.08387565  0.05168265     0.97700
C75         C  0.23222457  0.91803764  0.92142787     0.94100
Al76       Al  0.30351980  0.94632546  0.99272715     1.55560
O77         O  0.20554202  0.05334832  0.93089963    -0.77640
C78         C  0.35746215  0.01116411  0.05012663     0.98270
C79         C  0.24316148  0.93223393  0.08268620     0.93150
O80         O  0.21046390  0.94869955  0.05054358    -0.82960
O81         O  0.54625523  0.27283203  0.56796502    -0.82420
C82         C  0.48885927  0.12707386  0.42620213     0.96940
O83         O  0.52710527  0.12793376  0.45232850    -0.71530
O84         O  0.56327414  0.20372361  0.41395017    -0.75130
Al85       Al  0.55479722  0.17992289  0.48917184     1.48980
C86         C  0.57414622  0.24555169  0.40693875     0.92190
O87         O  0.45974945  0.27115151  0.43193035    -0.81350
O88         O  0.44327912  0.20816469  0.58886051    -0.74900
Al89       Al  0.50285146  0.27197691  0.49965859     1.90120
O90         O  0.41186350  0.22400061  0.47674751    -0.73970
O91         O  0.47855460  0.13128418  0.55518325    -0.73820
O92         O  0.45465658  0.15059986  0.44340225    -0.79480
O93         O  0.54996088  0.15555921  0.56331195    -0.77690
O94         O  0.50271479  0.21100505  0.50055307    -1.13820
O95         O  0.59399267  0.22525973  0.52342667    -0.73020
C96         C  0.58460730  0.24997774  0.56783826     0.97700
C97         C  0.42159137  0.24826610  0.43235732     0.94100
Al98       Al  0.45077679  0.18058238  0.51484684     1.55560
O99         O  0.55626421  0.27679479  0.44106529    -0.77640
C100        C  0.51491553  0.13602309  0.58448804     0.98270
C101        C  0.43088233  0.24975129  0.59266878     0.93150
O102        O  0.44885554  0.27954509  0.55726190    -0.82960
C103        C  0.47915411  0.99271905  0.24015510    -0.03110
C104        C  0.51234398  0.00807768  0.76265585    -0.03110
O105        O  0.72101114  0.54206750  0.57810415    -0.82420
C106        C  0.86311902  0.50168644  0.42832078     0.96940
O107        O  0.86537818  0.53255714  0.46715267    -0.71530
O108        O  0.78898237  0.56228977  0.42268008    -0.75130
Al109      Al  0.81044421  0.55621376  0.49909964     1.48980
C110        C  0.74696744  0.57078718  0.41464917     0.92190
O111        O  0.72516209  0.45549355  0.43791088    -0.81350
O112        O  0.79421469  0.43751671  0.58705272    -0.74900
Al113      Al  0.72328134  0.49834730  0.50745838     1.90120
O114        O  0.77744626  0.41010655  0.47590807    -0.73970
O115        O  0.86439944  0.48225636  0.55603968    -0.73820
O116        O  0.84431194  0.46324870  0.43964884    -0.79480
O117        O  0.83296217  0.55142829  0.57435602    -0.77690
O118        O  0.78332333  0.50160406  0.50704110    -1.13820
O119        O  0.76100074  0.59254479  0.52963096    -0.73020
C120        C  0.74126330  0.58193271  0.57666419     0.97700
C121        C  0.75121768  0.41928977  0.43397144     0.94100
Al122      Al  0.81798962  0.45152581  0.51396661     1.55560
O123        O  0.71602521  0.55182950  0.44840445    -0.77640
C124        C  0.85832511  0.51772365  0.58837372     0.98270
C125        C  0.75317633  0.42543565  0.59596546     0.93150
O126        O  0.72073350  0.44382332  0.56502164    -0.82960
O127        O  0.96243865  0.78744256  0.93435428    -0.82420
C128        C  0.01150757  0.62993341  0.05224832     0.96940
O129        O  0.98117953  0.63160585  0.01335194    -0.71530
O130        O  0.94372130  0.70059070  0.07355150    -0.75130
Al131      Al  0.95425750  0.68889755  0.99339714     1.48980
C132        C  0.93348382  0.74132744  0.09018285     0.92190
O133        O  0.04607188  0.77518817  0.07184963    -0.81350
O134        O  0.07266095  0.72279367  0.91492756    -0.74900
Al135      Al  0.00503640  0.78019071  0.00397591     1.90120
O136        O  0.09581322  0.72710924  0.03072663    -0.73970
O137        O  0.03262255  0.64812338  0.92518381    -0.73820
O138        O  0.04833158  0.65261651  0.04618705    -0.79480
O139        O  0.96253148  0.67787928  0.91442233    -0.77690
O140        O  0.00659692  0.72019210  0.99338889    -1.13820
O141        O  0.91467875  0.73811029  0.97288319    -0.73020
C142        C  0.92359816  0.76580820  0.93228917     0.97700
C143        C  0.08420694  0.75264799  0.07371577     0.94100
Al144      Al  0.05897251  0.68971873  0.98032096     1.55560
O145        O  0.95129672  0.77677500  0.06325154    -0.77640
C146        C  0.99713469  0.65628249  0.89445830     0.98270
C147        C  0.08096301  0.76509756  0.91388499     0.93150
O148        O  0.05969532  0.79301608  0.94937451    -0.82960
O149        O  0.96391571  0.22397839  0.07199911    -0.82420
C150        C  0.01788985  0.35808345  0.91445078     0.96940
O151        O  0.98099519  0.36085826  0.94448139    -0.71530
O152        O  0.94016010  0.28629434  0.91809073    -0.75130
Al153      Al  0.95325198  0.31382659  0.98975748     1.48980
C154        C  0.92949847  0.24432341  0.91342965     0.92190
O155        O  0.04526897  0.21922314  0.92916642    -0.81350
O156        O  0.06659438  0.29160062  0.08019522    -0.74900
Al157      Al  0.00445852  0.22144298  0.00125050     1.90120
O158        O  0.09552949  0.26364533  0.97162711    -0.73970
O159        O  0.03326145  0.36623995  0.03724799    -0.73820
O160        O  0.05177358  0.33374185  0.92892915    -0.79480
O161        O  0.96254423  0.34481688  0.06097250    -0.77690
O162        O  0.00486031  0.28207222  0.99847297    -1.13820
O163        O  0.91488856  0.27204995  0.03216491    -0.73020
C164        C  0.92631378  0.24768475  0.07552959     0.97700
C165        C  0.08340266  0.24206411  0.92639493     0.94100
Al166      Al  0.05790579  0.31181249  0.00400716     1.55560
O167        O  0.94905710  0.21417638  0.94682062    -0.77640
C168        C  0.99769431  0.36959405  0.06918341     0.98270
C169        C  0.07848366  0.25023424  0.08869877     0.93150
O170        O  0.05964716  0.21753642  0.05778251    -0.82960
O171        O  0.27831158  0.45955691  0.56125537    -0.82420
C172        C  0.13458969  0.50458273  0.41279186     0.96940
O173        O  0.13756087  0.46828868  0.44319853    -0.71530
O174        O  0.21535976  0.44086989  0.40515041    -0.75130
Al175      Al  0.19059244  0.44493808  0.47977405     1.48980
C176        C  0.25656820  0.42845417  0.39907623     0.92190
O177        O  0.27882756  0.54391184  0.42396038    -0.81350
O178        O  0.20599438  0.56161045  0.57259236    -0.74900
Al179      Al  0.27817311  0.50161575  0.49217308     1.90120
O180        O  0.22620294  0.59047759  0.46113541    -0.73970
O181        O  0.13491677  0.51846371  0.53875009    -0.73820
O182        O  0.15779956  0.54036249  0.42416334    -0.79480
O183        O  0.16384136  0.44807052  0.55333916    -0.77690
O184        O  0.21775112  0.49895231  0.49043619    -1.13820
O185        O  0.23803368  0.40790529  0.51440323    -0.73020
C186        C  0.25848472  0.41977706  0.56066817     0.97700
C187        C  0.25491979  0.58137666  0.42054166     0.94100
Al188      Al  0.18369176  0.54921284  0.49839174     1.55560
O189        O  0.28725569  0.44694003  0.43312958    -0.77640
C190        C  0.13793283  0.48128689  0.56801585     0.98270
C191        C  0.24669846  0.57363162  0.58261353     0.93150
O192        O  0.27976516  0.55599849  0.55100223    -0.82960
C193        C  0.98693017  0.51214210  0.24509743    -0.03110
C194        C  0.00356098  0.50196780  0.74885602    -0.03110
C195        C  0.24256242  0.22621341  0.23196828    -0.00050
C196        C  0.27167260  0.25470865  0.26547261    -0.00060
C197        C  0.12252633  0.49435516  0.67062541    -0.26940
C198        C  0.10837741  0.47585373  0.61713912    -0.15010
C199        C  0.06357124  0.45949463  0.60884641     0.35620
C200        C  0.03174734  0.46724013  0.65274062    -0.26380
C201        C  0.04284701  0.49291494  0.70425076    -0.15620
C202        C  0.09025485  0.50148331  0.71547757     0.36710
N203        N  0.10593072  0.51740032  0.77133777    -0.89870
H204        H  0.15825083  0.50489724  0.67670520     0.17820
H205        H  0.99743289  0.45355779  0.64494028     0.17810
N206        N  0.04872354  0.43630061  0.55612263    -0.88900
H207        H  0.12436449  0.54838357  0.76543971     0.35190
H208        H  0.12903125  0.49256137  0.78747537     0.40290
H209        H  0.07600864  0.43031651  0.52670288     0.39910
H210        H  0.02499679  0.45813065  0.53534797     0.34790
C211        C  0.05586477  0.49389630  0.38745696    -0.26940
C212        C  0.09986996  0.50583062  0.36861265    -0.15010
C213        C  0.10936341  0.51405472  0.30911242     0.35620
C214        C  0.07247634  0.51338048  0.27016589    -0.26380
C215        C  0.02623154  0.50764641  0.28996133    -0.15620
C216        C  0.01943335  0.49257090  0.34905303     0.36710
N217        N  0.97716848  0.47283223  0.37071758    -0.89870
H218        H  0.04968673  0.48435388  0.43283187     0.17820
H219        H  0.07992632  0.51957807  0.22433076     0.17810
N220        N  0.15541997  0.52177694  0.28652557    -0.88900
H221        H  0.96730877  0.49144348  0.40837178     0.35190
H222        H  0.98392005  0.43871266  0.38414131     0.40290
H223        H  0.18041066  0.51928998  0.31911165     0.39910
H224        H  0.15673180  0.55583918  0.27058709     0.34790
C225        C  0.29704526  0.33821090  0.28168453    -0.26940
C226        C  0.26119633  0.30432386  0.28558153    -0.15010
C227        C  0.22424906  0.31398007  0.32427548     0.35620
C228        C  0.22526865  0.35398922  0.36005953    -0.26380
C229        C  0.26246466  0.38631576  0.35949678    -0.15620
C230        C  0.29854302  0.37840547  0.31827016     0.36710
N231        N  0.33665086  0.41007765  0.31139035    -0.89870
H232        H  0.32577255  0.33215127  0.25173729     0.17820
H233        H  0.19641676  0.35898861  0.39018488     0.17810
N234        N  0.18631097  0.28224262  0.32982737    -0.88900
H235        H  0.36678190  0.39241145  0.32349752     0.35190
H236        H  0.33331782  0.43879622  0.33935157     0.40290
H237        H  0.15593006  0.30015956  0.31935612     0.39910
H238        H  0.18361930  0.27206968  0.37363460     0.34790
C239        C  0.01642163  0.48010543  0.14758437    -0.26940
C240        C  0.99529425  0.47106580  0.20263276    -0.15010
C241        C  0.98659536  0.42387537  0.21681008     0.35620
C242        C  0.98611518  0.39076845  0.17184950    -0.26380
C243        C  0.99775619  0.40379506  0.11476807    -0.15620
C244        C  0.01484587  0.44814170  0.10257788     0.36710
N245        N  0.02948924  0.46083620  0.04429365    -0.89870
H246        H  0.03241992  0.51314866  0.13786017     0.17820
H247        H  0.97704757  0.35494389  0.18148508     0.17810
N248        N  0.97765528  0.40943655  0.27564599    -0.88900
H249        H  0.04143999  0.49520243  0.04315120     0.35190
H250        H  0.00027181  0.45969991  0.01755427     0.40290
H251        H  0.00345354  0.38562754  0.28714204     0.39910
H252        H  0.94599903  0.39180650  0.27700013     0.34790
C253        C  0.00339006  0.41682953  0.77372520    -0.26940
C254        C  0.00999167  0.46316953  0.79309575    -0.15010
C255        C  0.03076373  0.47063234  0.84929589     0.35620
C256        C  0.03745370  0.43331654  0.88543517    -0.26380
C257        C  0.02390745  0.38943622  0.86814063    -0.15620
C258        C  0.00836810  0.37979412  0.81161054     0.36710
N259        N  0.99678988  0.33358443  0.79189134    -0.89870
H260        H  0.99197852  0.40934623  0.72971656     0.17820
H261        H  0.05102226  0.43917278  0.92905679     0.17810
N262        N  0.04547477  0.51523321  0.87102732    -0.88900
H263        H  0.96108455  0.33277614  0.78453414     0.35190
H264        H  0.00383150  0.30866004  0.82378668     0.40290
H265        H  0.08052490  0.51319200  0.88199064     0.39910
H266        H  0.02688626  0.52269005  0.90956274     0.34790
C267        C  0.19458754  0.27377727  0.16363429    -0.26940
C268        C  0.19552373  0.24129942  0.20913268    -0.15010
C269        C  0.15527705  0.21296852  0.21718715     0.35620
C270        C  0.11854584  0.21397457  0.17642578    -0.26380
C271        C  0.11934450  0.24439140  0.12871624    -0.15620
C272        C  0.15757498  0.27550842  0.12385039     0.36710
N273        N  0.16001341  0.30819793  0.07673962    -0.89870
H274        H  0.22458516  0.29565260  0.15598087     0.17820
H275        H  0.08848083  0.19208969  0.18346691     0.17810
N276        N  0.14936971  0.18444148  0.26797400    -0.88900
H277        H  0.19021820  0.30148370  0.05242926     0.35190
H278        H  0.16252176  0.34168446  0.09474768     0.40290
H279        H  0.17495002  0.19146927  0.29874921     0.39910
H280        H  0.15162026  0.14957955  0.25470632     0.34790
C281        C  0.95164063  0.55878981  0.16552187    -0.26940
C282        C  0.98616109  0.55725457  0.20872358    -0.15010
C283        C  0.01997207  0.59267102  0.20854791     0.35620
C284        C  0.02812081  0.61632191  0.15627495    -0.26380
C285        C  0.00097725  0.60669632  0.10682353    -0.15620
C286        C  0.96016432  0.58023739  0.11277293     0.36710
N287        N  0.92898619  0.57257405  0.06473829    -0.89870
H288        H  0.92157232  0.53678284  0.16858426     0.17820
H289        H  0.05573543  0.64183727  0.15436017     0.17810
N290        N  0.04390964  0.60636696  0.26055432    -0.88900
H291        H  0.89968460  0.55391110  0.07807765     0.35190
H292        H  0.94629894  0.55152435  0.03396804     0.40290
H293        H  0.03481811  0.64090634  0.27000810     0.39910
H294        H  0.07950532  0.60597818  0.25145973     0.34790
C295        C  0.02963845  0.58645542  0.76655687    -0.26940
C296        C  0.00051241  0.54868216  0.78023634    -0.15010
C297        C  0.96278791  0.55571867  0.82025686     0.35620
C298        C  0.95656676  0.59817926  0.84637667    -0.26380
C299        C  0.99110439  0.63112328  0.84154227    -0.15620
C300        C  0.02656881  0.62726965  0.79926046     0.36710
N301        N  0.05945068  0.66383335  0.78896425    -0.89870
H302        H  0.05496084  0.58453310  0.73151961     0.17820
H303        H  0.92903520  0.60182544  0.87893456     0.17810
N304        N  0.93233759  0.51876843  0.83741236    -0.88900
H305        H  0.09170784  0.65234896  0.80366211     0.35190
H306        H  0.05047646  0.69357288  0.81307705     0.40290
H307        H  0.93537596  0.51378685  0.88258419     0.39910
H308        H  0.89828843  0.52926347  0.82912319     0.34790
C309        C  0.88177211  0.48684117  0.68090295    -0.26940
C310        C  0.88587981  0.52145213  0.63854130    -0.15010
C311        C  0.92405901  0.55039245  0.63468270     0.35620
C312        C  0.95998708  0.54207387  0.67165835    -0.26380
C313        C  0.95865204  0.50573604  0.71374061    -0.15620
C314        C  0.91779312  0.47861344  0.71944262     0.36710
N315        N  0.91196933  0.44313174  0.76270392    -0.89870
H316        H  0.85153340  0.46444907  0.68179939     0.17820
H317        H  0.99082175  0.56302635  0.66592073     0.17810
N318        N  0.92822170  0.58458760  0.58900675    -0.88900
H319        H  0.88226379  0.45082882  0.78754884     0.35190
H320        H  0.90588311  0.41156359  0.74097984     0.40290
H321        H  0.90388461  0.61061259  0.59811593     0.39910
H322        H  0.96064419  0.60076465  0.58989285     0.34790
C323        C  0.93539636  0.55447567  0.31367217    -0.26940
C324        C  0.93990139  0.51553762  0.27604846    -0.15010
C325        C  0.90273803  0.48298825  0.27472344     0.35620
C326        C  0.87529740  0.47959431  0.32501221    -0.26380
C327        C  0.88055438  0.51208107  0.37044145    -0.15620
C328        C  0.90547769  0.55338229  0.36059685     0.36710
N329        N  0.90495088  0.59181256  0.40112517    -0.89870
H330        H  0.95972133  0.58314122  0.31177104     0.17820
H331        H  0.85097742  0.45104120  0.32913629     0.17810
N332        N  0.89149650  0.45371416  0.22550107    -0.88900
H333        H  0.89533313  0.62180603  0.37841648     0.35190
H334        H  0.93854721  0.59660458  0.41687603     0.40290
H335        H  0.90884350  0.46426280  0.18775724     0.39910
H336        H  0.85651391  0.45916963  0.21605340     0.34790
C337        C  0.47581867  0.11507354  0.67697593    -0.26940
C338        C  0.51660832  0.11817343  0.64306640    -0.15010
C339        C  0.55843779  0.10179544  0.66500222     0.35620
C340        C  0.55657201  0.07157475  0.71120153    -0.26380
C341        C  0.51335201  0.05705872  0.73516089    -0.15620
C342        C  0.47482237  0.08624829  0.72606626     0.36710
N343        N  0.43723002  0.08929921  0.76734771    -0.89870
H344        H  0.44476782  0.13368181  0.66444427     0.17820
H345        H  0.58884963  0.05521735  0.72239261     0.17810
N346        N  0.60208101  0.11113756  0.63682251    -0.88900
H347        H  0.40603662  0.08687658  0.74472548     0.35190
H348        H  0.43794121  0.12266800  0.78593541     0.40290
H349        H  0.61678206  0.07944444  0.62334614     0.39910
H350        H  0.62400432  0.12640590  0.66766357     0.34790
C351        C  0.44376284  0.07140569  0.37159061    -0.26940
C352        C  0.48361877  0.09796482  0.37563027    -0.15010
C353        C  0.51447489  0.10086549  0.32824986     0.35620
C354        C  0.50875950  0.07040426  0.28159601    -0.26380
C355        C  0.47483019  0.03492806  0.28345358    -0.15620
C356        C  0.43658673  0.04313622  0.32334228     0.36710
N357        N  0.38869167  0.03184563  0.31306096    -0.89870
H358        H  0.41659640  0.07484079  0.40457160     0.17820
H359        H  0.53150894  0.07461930  0.24423360     0.17810
N360        N  0.55024638  0.13556368  0.32668761    -0.88900
H361        H  0.37591899  0.01143458  0.34739587     0.35190
H362        H  0.38157676  0.01613831  0.27321263     0.40290
H363        H  0.53371047  0.16766728  0.32110331     0.39910
H364        H  0.57177285  0.13093354  0.28998229     0.34790
C365        C  0.34057760  0.23432676  0.40046749    -0.26940
C366        C  0.38598558  0.24719258  0.38369649    -0.15010
C367        C  0.39499119  0.25145888  0.32233466     0.35620
C368        C  0.35810423  0.24690299  0.28178964    -0.26380
C369        C  0.31234756  0.23657953  0.29985536    -0.15620
C370        C  0.30465119  0.22807737  0.36001454     0.36710
N371        N  0.25884349  0.21690866  0.38071641    -0.89870
H372        H  0.33240708  0.22940749  0.44641127     0.17820
H373        H  0.36475405  0.25417405  0.23594335     0.17810
N374        N  0.44055272  0.25938312  0.29882184    -0.88900
H375        H  0.25789574  0.21443008  0.42640447     0.35190
H376        H  0.25069371  0.18390584  0.36453235     0.40290
H377        H  0.46571387  0.25737015  0.33094671     0.39910
H378        H  0.44126257  0.29311505  0.28178439     0.34790
C379        C  0.43179002  0.04228696  0.17470971    -0.26940
C380        C  0.43833863  0.99750786  0.19961275    -0.15010
C381        C  0.41290160  0.95914349  0.17757978     0.35620
C382        C  0.38284777  0.96663458  0.13234080    -0.26380
C383        C  0.38050565  0.01000750  0.10499849    -0.15620
C384        C  0.40330280  0.04881050  0.12772419     0.36710
N385        N  0.40115423  0.09413420  0.10171847    -0.89870
H386        H  0.45194552  0.07206297  0.18849225     0.17820
H387        H  0.36454201  0.93672657  0.11503601     0.17810
N388        N  0.42077917  0.91192823  0.19513703    -0.88900
H389        H  0.36689541  0.10602490  0.10353055     0.35190
H390        H  0.41206152  0.09164713  0.05798237     0.40290
H391        H  0.43226583  0.89276935  0.15863936     0.39910
H392        H  0.38926822  0.89786018  0.20944677     0.34790
C393        C  0.38445747  0.97916217  0.79944095    -0.26940
C394        C  0.38900026  0.96793642  0.85841210    -0.15010
C395        C  0.43253880  0.96146668  0.88300659     0.35620
C396        C  0.47073745  0.97480468  0.85179796    -0.26380
C397        C  0.46739828  0.99383312  0.79482391    -0.15620
C398        C  0.42390977  0.98983988  0.76623788     0.36710
N399        N  0.41971034  0.99596218  0.70422040    -0.89870
H400        H  0.35037714  0.98207590  0.78019492     0.17820
H401        H  0.50337828  0.96920202  0.87352936     0.17810
N402        N  0.43899841  0.94615930  0.94202267    -0.88900
H403        H  0.39364313  0.02032774  0.69612822     0.35190
H404        H  0.40872867  0.96427135  0.68633598     0.40290
H405        H  0.41820811  0.91699139  0.94968485     0.39910
H406        H  0.42957998  0.97325626  0.97033371     0.34790
C407        C  0.24333857  0.10593079  0.16050713    -0.26940
C408        C  0.24740902  0.11910838  0.10119733    -0.15010
C409        C  0.26347113  0.16501626  0.08996017     0.35620
C410        C  0.27043663  0.19688298  0.13612212    -0.26380
C411        C  0.26046168  0.18582087  0.19473477    -0.15620
C412        C  0.25083263  0.13834804  0.20721477     0.36710
N413        N  0.25324620  0.12205477  0.26648185    -0.89870
H414        H  0.23551529  0.06993513  0.17056383     0.17820
H415        H  0.27941065  0.23246860  0.12518971     0.17810
N416        N  0.27155031  0.18060451  0.03126778    -0.88900
H417        H  0.24936509  0.08585796  0.26775500     0.35190
H418        H  0.22561510  0.13580745  0.29032832     0.40290
H419        H  0.25126398  0.21030661  0.02453821     0.39910
H420        H  0.30632154  0.19040493  0.02752533     0.34790
C421        C  0.60836191  0.99815025  0.19119467    -0.26940
C422        C  0.60309532  0.99266123  0.13128786    -0.15010
C423        C  0.56007708  0.98596063  0.10587191     0.35620
C424        C  0.52138756  0.98708897  0.14135759    -0.26380
C425        C  0.52429650  0.99425616  0.20288012    -0.15620
C426        C  0.56987159  0.99695604  0.22818856     0.36710
N427        N  0.57893431  0.99777861  0.29026560    -0.89870
H428        H  0.64268129  0.00255766  0.20938577     0.17820
H429        H  0.48923114  0.98047785  0.11933646     0.17810
N430        N  0.55594242  0.97855047  0.04361474    -0.88900
H431        H  0.59997994  0.96912982  0.29976122     0.35190
H432        H  0.54925032  0.99352518  0.31579308     0.40290
H433        H  0.57105856  0.94626063  0.03373638     0.39910
H434        H  0.52123131  0.97618278  0.03120687     0.34790
C435        C  0.62758815  0.99951525  0.84469403    -0.26940
C436        C  0.61658596  0.02994621  0.89054742    -0.15010
C437        C  0.57581611  0.05537757  0.89285719     0.35620
C438        C  0.54370145  0.04678122  0.85029135    -0.26380
C439        C  0.55161962  0.01256618  0.80605488    -0.15620
C440        C  0.59577110  0.99079184  0.80101592     0.36710
N441        N  0.60886654  0.96108343  0.75248436    -0.89870
H442        H  0.66057695  0.98141502  0.84416135     0.17820
H443        H  0.51108235  0.06561071  0.85238099     0.17810
N444        N  0.56591155  0.08676397  0.94080519    -0.88900
H445        H  0.64153115  0.94620870  0.75894833     0.35190
H446        H  0.61187266  0.98138838  0.71486225     0.40290
H447        H  0.58955958  0.11420851  0.93821531     0.39910
H448        H  0.53294441  0.10150557  0.93655790     0.34790
C449        C  0.51494090  0.98288900  0.65560542    -0.26940
C450        C  0.51821807  0.97018739  0.71537344    -0.15010
C451        C  0.51627876  0.92168441  0.72988791     0.35620
C452        C  0.50790671  0.88927042  0.68574503    -0.26380
C453        C  0.50246621  0.90395335  0.62851451    -0.15620
C454        C  0.50627317  0.95044971  0.61260830     0.36710
N455        N  0.50066379  0.96439969  0.55246137    -0.89870
H456        H  0.51475025  0.01834713  0.64104358     0.17820
H457        H  0.50656260  0.85236041  0.69565488     0.17810
N458        N  0.51957181  0.90554112  0.78929283    -0.88900
H459        H  0.50503832  0.00034867  0.54770357     0.35190
H460        H  0.46651465  0.95705262  0.54061782     0.40290
H461        H  0.55413006  0.90666096  0.80197976     0.39910
H462        H  0.50971217  0.87059056  0.79246707     0.34790
C463        C  0.44354065  0.93793827  0.31352981    -0.26940
C464        C  0.47955512  0.94660215  0.27418904    -0.15010
C465        C  0.51529121  0.91212245  0.27132137     0.35620
C466        C  0.52464119  0.88659504  0.32142139    -0.26380
C467        C  0.49494559  0.89069719  0.36966919    -0.15620
C468        C  0.45109401  0.91179621  0.36271348     0.36710
N469        N  0.41433018  0.90754509  0.40508895    -0.89870
H470        H  0.40956650  0.95128179  0.30651837     0.17820
H471        H  0.55475977  0.86396340  0.32244311     0.17810
N472        N  0.53966679  0.90080218  0.21804705    -0.88900
H473        H  0.38570214  0.89264886  0.38444701     0.35190
H474        H  0.40502542  0.94097490  0.41951809     0.40290
H475        H  0.53195176  0.86627242  0.20710699     0.39910
H476        H  0.57527017  0.90236304  0.22597454     0.34790
C477        C  0.71936094  0.38650204  0.33854507    -0.26940
C478        C  0.75341397  0.38623958  0.38196256    -0.15010
C479        C  0.79027451  0.35288034  0.37579282     0.35620
C480        C  0.78858817  0.31793213  0.33219693    -0.26380
C481        C  0.75160984  0.31488482  0.29350785    -0.15620
C482        C  0.71844333  0.35163065  0.29439303     0.36710
N483        N  0.68300545  0.35313931  0.25099743    -0.89870
H484        H  0.69227855  0.41270606  0.34002437     0.17820
H485        H  0.81469874  0.29074757  0.33138322     0.17810
N486        N  0.82920560  0.35345571  0.41462829    -0.88900
H487        H  0.65085923  0.35366049  0.27254781     0.35190
H488        H  0.68636074  0.38451505  0.22831970     0.40290
H489        H  0.84971995  0.38180445  0.40265227     0.39910
H490        H  0.85011106  0.32399846  0.40834767     0.34790
C491        C  0.65363004  0.25526880  0.27060114    -0.26940
C492        C  0.69754603  0.24792965  0.29556983    -0.15010
C493        C  0.69892364  0.23868219  0.35662857     0.35620
C494        C  0.65856094  0.24257673  0.39125922    -0.26380
C495        C  0.61520293  0.25342223  0.36741202    -0.15620
C496        C  0.61258591  0.25765270  0.30545001     0.36710
N497        N  0.56926338  0.26499176  0.27645711    -0.89870
H498        H  0.65153617  0.26253513  0.22416520     0.17820
H499        H  0.66100545  0.23544022  0.43772316     0.17810
N500        N  0.74111167  0.22565672  0.38531882    -0.88900
H501        H  0.57114647  0.29716394  0.25531336     0.35190
H502        H  0.54224983  0.26785983  0.30688982     0.40290
H503        H  0.76824434  0.22076668  0.35531641     0.39910
H504        H  0.75026480  0.25275325  0.41373882     0.34790
C505        C  0.86318453  0.28952436  0.13040621    -0.26940
C506        C  0.89426843  0.25098701  0.12872620    -0.15010
C507        C  0.89090457  0.21874868  0.17571174     0.35620
C508        C  0.85467285  0.22375184  0.21751955    -0.26380
C509        C  0.81909529  0.25750850  0.21222309    -0.15620
C510        C  0.82575493  0.29284478  0.17058722     0.36710
N511        N  0.79176579  0.32914802  0.16469072    -0.89870
H512        H  0.86622422  0.31648887  0.09760915     0.17820
H513        H  0.85077581  0.19684245  0.25031134     0.17810
N514        N  0.92100342  0.17911262  0.18175232    -0.88900
H515        H  0.79882197  0.34934779  0.12770550     0.35190
H516        H  0.79534400  0.35147915  0.20065144     0.40290
H517        H  0.94701814  0.17778109  0.15012284     0.39910
H518        H  0.90093509  0.14914210  0.17611251     0.34790
C519        C  0.76398010  0.15453822  0.22963677    -0.26940
C520        C  0.75892056  0.19717430  0.20002485    -0.15010
C521        C  0.76106663  0.19601108  0.13800684     0.35620
C522        C  0.77265887  0.15470497  0.10776728    -0.26380
C523        C  0.77840642  0.11217351  0.13684488    -0.15620
C524        C  0.77182636  0.11202717  0.19853892     0.36710
N525        N  0.77218529  0.06846003  0.22917836    -0.89870
H526        H  0.76343758  0.15461689  0.27708611     0.17820
H527        H  0.77381162  0.15548236  0.06034933     0.17810
N528        N  0.75225167  0.23746456  0.10521694    -0.88900
H529        H  0.76644401  0.07392789  0.27400612     0.35190
H530        H  0.80540188  0.05419765  0.22460087     0.40290
H531        H  0.72409151  0.23098959  0.07787337     0.39910
H532        H  0.78108335  0.24385475  0.07836026     0.34790
C533        C  0.65955370  0.72101201  0.28695832    -0.26940
C534        C  0.69481557  0.75501826  0.29337995    -0.15010
C535        C  0.68569033  0.79259426  0.33228858     0.35620
C536        C  0.64501162  0.79217946  0.36653669    -0.26380
C537        C  0.61478565  0.75328474  0.36903775    -0.15620
C538        C  0.62079641  0.71845850  0.32525733     0.36710
N539        N  0.59113344  0.67852336  0.32005856    -0.89870
H540        H  0.66521415  0.69240920  0.25648388     0.17820
H541        H  0.63984804  0.82124044  0.39645343     0.17810
N542        N  0.71821094  0.82959490  0.34291944    -0.88900
H543        H  0.57601723  0.67966633  0.27863562     0.35190
H544        H  0.56394856  0.67926797  0.35020193     0.40290
H545        H  0.74962199  0.82379165  0.32152756     0.39910
H546        H  0.72607862  0.82963016  0.38755303     0.34790
C547        C  0.75167924  0.65145817  0.28121445    -0.26940
C548        C  0.75552669  0.69525209  0.30914683    -0.15010
C549        C  0.75355201  0.69607303  0.37111299     0.35620
C550        C  0.74407143  0.65536571  0.40301989    -0.26380
C551        C  0.73901684  0.61174401  0.37570131    -0.15620
C552        C  0.74502686  0.60975690  0.31367278     0.36710
N553        N  0.74483638  0.56619539  0.28227657    -0.89870
H554        H  0.75207811  0.64981295  0.23377501     0.17820
H555        H  0.74331726  0.65766137  0.45044213     0.17810
N556        N  0.76030113  0.73896405  0.40222159    -0.88900
H557        H  0.71691927  0.56694217  0.25342877     0.35190
H558        H  0.73881401  0.53832108  0.31054400     0.40290
H559        H  0.78860830  0.73471128  0.42996130     0.39910
H560        H  0.73099978  0.74509316  0.42851175     0.34790
C561        C  0.79242123  0.88258960  0.16650480    -0.26940
C562        C  0.75809054  0.88215741  0.12355500    -0.15010
C563        C  0.72284459  0.84711058  0.12816260     0.35620
C564        C  0.72590070  0.81165353  0.17073682    -0.26380
C565        C  0.76224596  0.81011265  0.21067620    -0.15620
C566        C  0.79463570  0.84747086  0.20967791     0.36710
N567        N  0.83072795  0.84960559  0.25205202    -0.89870
H568        H  0.81859227  0.90959834  0.16579795     0.17820
H569        H  0.70106346  0.78339834  0.17049501     0.17810
N570        N  0.68403561  0.84673468  0.08909335    -0.88900
H571        H  0.82736407  0.88104881  0.27509027     0.35190
H572        H  0.86252889  0.85007562  0.22969131     0.40290
H573        H  0.66280884  0.87484332  0.10092679     0.39910
H574        H  0.66381060  0.81692699  0.09510831     0.34790
C575        C  0.81088578  0.73182448  0.15199973    -0.26940
C576        C  0.81582840  0.74247813  0.21156056    -0.15010
C577        C  0.86124527  0.74848494  0.23331690     0.35620
C578        C  0.89962774  0.75022533  0.19344191    -0.26380
C579        C  0.89339946  0.74474269  0.13251682    -0.15620
C580        C  0.84859393  0.73254040  0.11274681     0.36710
N581        N  0.84106127  0.72128113  0.05222699    -0.89870
H582        H  0.77634333  0.72617995  0.13509801     0.17820
H583        H  0.93435121  0.75516546  0.20994095     0.17810
N584        N  0.86838790  0.75117686  0.29551389    -0.88900
H585        H  0.80566920  0.71819796  0.04359627     0.35190
H586        H  0.85511573  0.68817663  0.04474571     0.40290
H587        H  0.85052382  0.77991309  0.31259711     0.39910
H588        H  0.90348966  0.75627658  0.30442189     0.34790
C589        C  0.29072187  0.65627089  0.28550390    -0.26940
C590        C  0.25603320  0.69121553  0.28673001    -0.15010
C591        C  0.21865346  0.68527736  0.32619438     0.35620
C592        C  0.21905325  0.64761045  0.36586497    -0.26380
C593        C  0.25672537  0.61581638  0.37000728    -0.15620
C594        C  0.29239084  0.61964376  0.32671108     0.36710
N595        N  0.33254417  0.58994833  0.32447607    -0.89870
H596        H  0.31985146  0.66027762  0.25563582     0.17820
H597        H  0.19001986  0.64459683  0.39600697     0.17810
N598        N  0.18152229  0.71877849  0.32846793    -0.88900
H599        H  0.33043745  0.56956584  0.28647500     0.35190
H600        H  0.33472190  0.56750217  0.35980064     0.40290
H601        H  0.19500865  0.75065624  0.34250086     0.39910
H602        H  0.15646952  0.70921065  0.35949765     0.34790
C603        C  0.30660053  0.75743683  0.35692265    -0.26940
C604        C  0.31156607  0.75675951  0.29546319    -0.15010
C605        C  0.35783334  0.75476134  0.27292927     0.35620
C606        C  0.39616644  0.75344001  0.31198532    -0.26380
C607        C  0.39003833  0.74907046  0.37323290    -0.15620
C608        C  0.34388973  0.75016849  0.39482993     0.36710
N609        N  0.33278276  0.74267380  0.45529987    -0.89870
H610        H  0.27212368  0.75780802  0.37606303     0.17820
H611        H  0.43104947  0.75504404  0.29413425     0.17810
N612        N  0.36742539  0.75371836  0.21116116    -0.88900
H613        H  0.32182869  0.77467235  0.47256191     0.35190
H614        H  0.36136164  0.73082613  0.47846795     0.40290
H615        H  0.33688651  0.75554766  0.18741266     0.39910
H616        H  0.38268949  0.72151197  0.20126286     0.34790
C617        C  0.14661282  0.71360283  0.13075584    -0.26940
C618        C  0.11671016  0.75269517  0.12546201    -0.15010
C619        C  0.12188573  0.78924933  0.16731721     0.35620
C620        C  0.15845371  0.78702239  0.20789516    -0.26380
C621        C  0.19284051  0.75180745  0.20575687    -0.15620
C622        C  0.18454219  0.71311003  0.16931998     0.36710
N623        N  0.21601714  0.67447794  0.16819531    -0.89870
H624        H  0.14237765  0.68378573  0.10195057     0.17820
H625        H  0.16312053  0.81637793  0.23729785     0.17810
N626        N  0.09347108  0.83050311  0.16889738    -0.88900
H627        H  0.22822813  0.66994523  0.12525892     0.35190
H628        H  0.19738940  0.64460526  0.17956368     0.40290
H629        H  0.06783695  0.83049463  0.13738787     0.39910
H630        H  0.11485715  0.85892238  0.15946529     0.34790
C631        C  0.24700918  0.84756767  0.09741285    -0.26940
C632        C  0.23857739  0.89129316  0.12324576    -0.15010
C633        C  0.24235229  0.89444621  0.18534743     0.35620
C634        C  0.24943156  0.85346079  0.21920623    -0.26380
C635        C  0.25594423  0.80918067  0.19285243    -0.15620
C636        C  0.25697693  0.80762310  0.13040201     0.36710
N637        N  0.26725792  0.76547809  0.09845808    -0.89870
H638        H  0.24812061  0.84458352  0.05006044     0.17820
H639        H  0.24730275  0.85589978  0.26654372     0.17810
N640        N  0.23811929  0.93829005  0.21565341    -0.88900
H641        H  0.23737034  0.75541875  0.07617857     0.35190
H642        H  0.27647855  0.73845554  0.12637291     0.40290
H643        H  0.23165051  0.96543095  0.18653389     0.39910
H644        H  0.27003299  0.94528089  0.23513078     0.34790
C645        C  0.35918131  0.73447536  0.72354355    -0.26940
C646        C  0.31446069  0.74904347  0.70647730    -0.15010
C647        C  0.30909213  0.76539576  0.64893423     0.35620
C648        C  0.34613813  0.76258809  0.60955947    -0.26380
C649        C  0.39024696  0.74437648  0.62388747    -0.15620
C650        C  0.39707106  0.73191216  0.68344270     0.36710
N651        N  0.44093617  0.71652344  0.70542056    -0.89870
H652        H  0.36424028  0.72243652  0.76789263     0.17820
H653        H  0.33954917  0.77577718  0.56641711     0.17810
N654        N  0.26602434  0.78387986  0.62768993    -0.88900
H655        H  0.45184171  0.74109122  0.73634636     0.35190
H656        H  0.46619048  0.71562508  0.67272968     0.40290
H657        H  0.24105616  0.78731601  0.66068991     0.39910
H658        H  0.25317490  0.76055036  0.59647618     0.34790
C659        C  0.22166525  0.68384870  0.67491121    -0.26940
C660        C  0.25776039  0.68477541  0.71534616    -0.15010
C661        C  0.28856525  0.64586736  0.71532471     0.35620
C662        C  0.28588126  0.61053230  0.67155445    -0.26380
C663        C  0.25159767  0.61168834  0.62842611    -0.15620
C664        C  0.21783855  0.64818328  0.63234302     0.36710
N665        N  0.18065132  0.65060766  0.59092892    -0.89870
H666        H  0.19801746  0.71310306  0.67346800     0.17820
H667        H  0.31040973  0.58189336  0.67182215     0.17810
N668        N  0.32281711  0.64193989  0.75995505    -0.88900
H669        H  0.16457056  0.68329074  0.59255362     0.35190
H670        H  0.15536034  0.62687670  0.60453371     0.40290
H671        H  0.35523116  0.63833661  0.73950604     0.39910
H672        H  0.31639276  0.61121300  0.78299733     0.34790
C673        C  0.27916058  0.85624388  0.87154119    -0.26940
C674        C  0.23969200  0.88591248  0.86915338    -0.15010
C675        C  0.21170390  0.88227141  0.81840960     0.35620
C676        C  0.22157454  0.84685554  0.77656373    -0.26380
C677        C  0.25578195  0.81222812  0.78594047    -0.15620
C678        C  0.28738175  0.82024968  0.83096248     0.36710
N679        N  0.32580684  0.78934940  0.83896740    -0.89870
H680        H  0.30325579  0.85881182  0.90743676     0.17820
H681        H  0.19790749  0.84246473  0.74041149     0.17810
N682        N  0.17169210  0.91103495  0.80866339    -0.88900
H683        H  0.32375247  0.77545293  0.88113885     0.35190
H684        H  0.35616998  0.80907274  0.83641684     0.40290
H685        H  0.16610793  0.93505307  0.84219952     0.39910
H686        H  0.14266623  0.88927222  0.80853734     0.34790
C687        C  0.15687229  0.76283032  0.77886569    -0.26940
C688        C  0.19971998  0.74955229  0.80310543    -0.15010
C689        C  0.20209505  0.74643626  0.86477827     0.35620
C690        C  0.16432012  0.76087213  0.90023463    -0.26380
C691        C  0.12192513  0.77551300  0.87636698    -0.15620
C692        C  0.11824807  0.77540072  0.81437853     0.36710
N693        N  0.07565289  0.78748968  0.78601925    -0.89870
H694        H  0.15438152  0.76709681  0.73189243     0.17820
H695        H  0.16676787  0.75712096  0.94736857     0.17810
N696        N  0.24410070  0.73037703  0.89132974    -0.88900
H697        H  0.08209884  0.81686392  0.76033367     0.35190
H698        H  0.05041354  0.79750094  0.81672981     0.40290
H699        H  0.24914830  0.69571909  0.87835103     0.39910
H700        H  0.24091305  0.73049412  0.93701189     0.34790
C701        C  0.27728175  0.34698598  0.70196233    -0.26940
C702        C  0.24365104  0.31149650  0.69458071    -0.15010
C703        C  0.21094580  0.31782624  0.64936710     0.35620
C704        C  0.21574198  0.35568397  0.61089262    -0.26380
C705        C  0.25370679  0.38692846  0.61239053    -0.15620
C706        C  0.28379617  0.38344444  0.66111614     0.36710
N707        N  0.32323825  0.41319172  0.66917369    -0.89870
H708        H  0.30250682  0.34332449  0.73651494     0.17820
H709        H  0.19042200  0.35846450  0.57635329     0.17810
N710        N  0.17416675  0.28530657  0.63800779    -0.88900
H711        H  0.31735258  0.43291748  0.70719478     0.35190
H712        H  0.32789036  0.43646092  0.63494059     0.40290
H713        H  0.17701282  0.25568369  0.66362515     0.39910
H714        H  0.17755742  0.27358116  0.59471984     0.34790
C715        C  0.34349114  0.25525279  0.72156104    -0.26940
C716        C  0.30143107  0.24753229  0.69189835    -0.15010
C717        C  0.30398688  0.24202665  0.63030590     0.35620
C718        C  0.34603550  0.24826596  0.59977739    -0.26380
C719        C  0.38772580  0.25778555  0.62851625    -0.15620
C720        C  0.38656550  0.25903806  0.69092155     0.36710
N721        N  0.42810355  0.26427600  0.72453274    -0.89870
H722        H  0.34261964  0.26057414  0.76859191     0.17820
H723        H  0.34620507  0.24378978  0.55265228     0.17810
N724        N  0.26314176  0.23130507  0.59783874    -0.88900
H725        H  0.42533279  0.29559451  0.74795866     0.35190
H726        H  0.45715629  0.26745310  0.69724798     0.40290
H727        H  0.26882236  0.19978452  0.57567718     0.39910
H728        H  0.25876277  0.25718576  0.56627749     0.34790
C729        C  0.17787276  0.28809573  0.82040956    -0.26940
C730        C  0.17971912  0.25321370  0.77757714    -0.15010
C731        C  0.14276408  0.22036992  0.77671772     0.35620
C732        C  0.10999329  0.21830445  0.82334746    -0.26380
C733        C  0.11331851  0.24828295  0.87185613    -0.15620
C734        C  0.14651790  0.28527107  0.86803991     0.36710
N735        N  0.15070980  0.31919303  0.91394296    -0.89870
H736        H  0.20551847  0.31356654  0.82219332     0.17820
H737        H  0.08402689  0.19110427  0.82333898     0.17810
N738        N  0.14135643  0.18587415  0.73120800    -0.88900
H739        H  0.14619691  0.35227322  0.89584405     0.35190
H740        H  0.18425851  0.31722853  0.93070258     0.40290
H741        H  0.10931449  0.18858410  0.71050094     0.39910
H742        H  0.14317528  0.15299643  0.75058829     0.34790
C743        C  0.23189197  0.19352747  0.84967200    -0.26940
C744        C  0.24116541  0.19361811  0.78860275    -0.15010
C745        C  0.24622916  0.14978950  0.76056918     0.35620
C746        C  0.24110083  0.10821199  0.79381535    -0.26380
C747        C  0.22581433  0.10915309  0.85297574    -0.15620
C748        C  0.21944033  0.15280462  0.87990232     0.36710
N749        N  0.20117740  0.15570958  0.93862899    -0.89870
H750        H  0.22925723  0.22639066  0.87289420     0.17820
H751        H  0.24862606  0.07482051  0.77341255     0.17810
N752        N  0.25619200  0.14744981  0.69887813    -0.88900
H753        H  0.19682767  0.19053551  0.95124115     0.35190
H754        H  0.16785049  0.14149005  0.93814650     0.40290
H755        H  0.22768048  0.16117021  0.67689780     0.39910
H756        H  0.25945516  0.11275493  0.68519037     0.34790
C757        C  0.65037349  0.25283484  0.71773486    -0.26940
C758        C  0.69524431  0.23802002  0.70006907    -0.15010
C759        C  0.70091987  0.22442879  0.64072970     0.35620
C760        C  0.66469081  0.23056299  0.60077611    -0.26380
C761        C  0.62058631  0.24869917  0.61664402    -0.15620
C762        C  0.61306479  0.25779378  0.67764209     0.36710
N763        N  0.56898270  0.27231871  0.70130741    -0.89870
H764        H  0.64491829  0.26353875  0.76288800     0.17820
H765        H  0.67201424  0.22104303  0.55561166     0.17810
N766        N  0.74378673  0.20551902  0.61843088    -0.88900
H767        H  0.55816719  0.24683703  0.73097874     0.35190
H768        H  0.54355921  0.27370104  0.66946243     0.40290
H769        H  0.76813188  0.20146051  0.65146559     0.39910
H770        H  0.75729730  0.22904348  0.58797523     0.34790
C771        C  0.71461395  0.33986884  0.71828658    -0.26940
C772        C  0.74898803  0.30447002  0.71304448    -0.15010
C773        C  0.78518082  0.31211432  0.67259640     0.35620
C774        C  0.78445686  0.35147615  0.63608427    -0.26380
C775        C  0.74818482  0.38490067  0.63761512    -0.15620
C776        C  0.71332848  0.37932767  0.68104733     0.36710
N777        N  0.67673082  0.41275820  0.68967470    -0.89870
H778        H  0.68681877  0.33569908  0.74996456     0.17820
H779        H  0.81250623  0.35502491  0.60449766     0.17810
N780        N  0.82215249  0.27910130  0.66640542    -0.88900
H781        H  0.64554840  0.39634386  0.67921125     0.35190
H782        H  0.68030188  0.44110420  0.66163527     0.40290
H783        H  0.85314727  0.29631826  0.67568413     0.39910
H784        H  0.82388281  0.26816544  0.62268092     0.34790
C785        C  0.72114770  0.18349236  0.84303080    -0.26940
C786        C  0.75058493  0.18102261  0.79406802    -0.15010
C787        C  0.77922832  0.14076056  0.78833772     0.35620
C788        C  0.78239163  0.10803619  0.83486908    -0.26380
C789        C  0.75741636  0.11428930  0.88759624    -0.15620
C790        C  0.72487547  0.15184011  0.88979389     0.36710
N791        N  0.69618118  0.15952408  0.94048918    -0.89870
H792        H  0.69869629  0.21358737  0.84844851     0.17820
H793        H  0.80578938  0.07861077  0.83070066     0.17810
N794        N  0.80678046  0.13447653  0.73617226    -0.88900
H795        H  0.66159800  0.15920143  0.92729044     0.35190
H796        H  0.70347565  0.19264660  0.95733780     0.40290
H797        H  0.78397027  0.12916827  0.70149024     0.39910
H798        H  0.82699151  0.10430488  0.73906044     0.34790
C799        C  0.85309387  0.22475582  0.77822847    -0.26940
C800        C  0.80991174  0.24268216  0.79802192    -0.15010
C801        C  0.80742020  0.25928860  0.85638853     0.35620
C802        C  0.84606807  0.25508918  0.89372463    -0.26380
C803        C  0.88853259  0.23541016  0.87481177    -0.15620
C804        C  0.89228010  0.22158872  0.81519467     0.36710
N805        N  0.93512467  0.20462393  0.79040923    -0.89870
H806        H  0.85599941  0.21107725  0.73405260     0.17820
H807        H  0.84336702  0.26846257  0.93816166     0.17810
N808        N  0.76468086  0.27870607  0.87839129    -0.88900
H809        H  0.92968064  0.17023312  0.77679138     0.35190
H810        H  0.96118670  0.20347485  0.82180111     0.40290
H811        H  0.75800287  0.30902470  0.85470671     0.39910
H812        H  0.76792050  0.28869947  0.92229129     0.34790
C813        C  0.78631780  0.68552274  0.66896735    -0.26940
C814        C  0.75555448  0.68758155  0.71629513    -0.15010
C815        C  0.72457051  0.64939966  0.72364772     0.35620
C816        C  0.72122448  0.61382890  0.67982084    -0.26380
C817        C  0.74739151  0.61607698  0.62758276    -0.15620
C818        C  0.78115621  0.65257089  0.62369965     0.36710
N819        N  0.80889923  0.65891138  0.57197229    -0.89870
H820        H  0.81022989  0.71412664  0.66223436     0.17820
H821        H  0.69637206  0.58591526  0.68512350     0.17810
N822        N  0.69470263  0.64843148  0.77428440    -0.88900
H823        H  0.84367412  0.65967017  0.58406559     0.35190
H824        H  0.80075145  0.69137565  0.55414199     0.40290
H825        H  0.71576024  0.64548665  0.81110410     0.39910
H826        H  0.67361782  0.61886168  0.77340368     0.34790
C827        C  0.65494630  0.73933897  0.72365545    -0.26940
C828        C  0.69949982  0.75153408  0.70279353    -0.15010
C829        C  0.70415374  0.76229819  0.64264453     0.35620
C830        C  0.66592588  0.75764504  0.60482635    -0.26380
C831        C  0.62184563  0.74364204  0.62499426    -0.15620
C832        C  0.61622053  0.73592960  0.68603618     0.36710
N833        N  0.57187952  0.72508581  0.71154156    -0.89870
H834        H  0.65049621  0.73044459  0.76940632     0.17820
H835        H  0.67021039  0.76658575  0.55899447     0.17810
N836        N  0.74842844  0.77651902  0.61969216    -0.88900
H837        H  0.57440809  0.69201218  0.73023727     0.35190
H838        H  0.54658304  0.72264388  0.67935771     0.40290
H839        H  0.75681675  0.80829459  0.63951634     0.39910
H840        H  0.74658706  0.78256225  0.57463427     0.34790
C841        C  0.85702254  0.75534083  0.78500762    -0.26940
C842        C  0.81089980  0.75052054  0.80580010    -0.15010
C843        C  0.80433786  0.74999842  0.86738590     0.35620
C844        C  0.84102683  0.76103523  0.90484921    -0.26380
C845        C  0.88697404  0.76777263  0.88501932    -0.15620
C846        C  0.89513175  0.76236639  0.82357996     0.36710
N847        N  0.94094130  0.76363450  0.79841926    -0.89870
H848        H  0.86329470  0.75615272  0.73815679     0.17820
H849        H  0.83344720  0.76262920  0.95131263     0.17810
N850        N  0.76022217  0.73921186  0.89375446    -0.88900
H851        H  0.94758556  0.73089262  0.77975926     0.35190
H852        H  0.96604576  0.76870871  0.83030047     0.40290
H853        H  0.73605401  0.72911150  0.86241054     0.39910
H854        H  0.74774949  0.76917361  0.91494487     0.34790
C855        C  0.78759771  0.88861442  0.82860939    -0.26940
C856        C  0.74979804  0.89217384  0.86747500    -0.15010
C857        C  0.71295444  0.85918515  0.86029533     0.35620
C858        C  0.71694206  0.82225023  0.81989972    -0.26380
C859        C  0.75686906  0.81572758  0.78568701    -0.15620
C860        C  0.79080172  0.85166020  0.78715264     0.36710
N861        N  0.82933898  0.85015201  0.74723770    -0.89870
H862        H  0.81499372  0.91430888  0.83061126     0.17820
H863        H  0.69049641  0.79556492  0.82026836     0.17810
N864        N  0.67201990  0.85959101  0.89632349    -0.88900
H865        H  0.85979415  0.85137434  0.77165803     0.35190
H866        H  0.82825262  0.88029240  0.72177962     0.40290
H867        H  0.65288353  0.88977487  0.88817167     0.39910
H868        H  0.68155339  0.85803554  0.94032281     0.34790
loop_ 
_geom_bond_atom_site_label_1 
_geom_bond_atom_site_label_2 
_geom_bond_distance 
_geom_bond_site_symmetry_2 
_ccdc_geom_bond_type 
C1            C2   1.403       .  D
C1          C814   1.513       .  S
C1          C828   1.516       .  S
C2          C842   1.521       .  S
C2          C859   1.519       .  S
C3            C4   1.406       .  D
C3          C758   1.521       .  S
C3          C772   1.521       .  S
C4          C786   1.515       .  S
C4          C800   1.520       .  S
C5            C6   1.401       .  D
C5          C702   1.520       .  S
C5          C716   1.517       .  S
C6          C730   1.518       .  S
C6          C744   1.523       .  S
C7            C8   1.396       .  D
C7          C677   1.510       .  S
C7          C688   1.508       .  S
C8          C646   1.503       .  S
C8          C660   1.519       .  S
C9           C10   1.404       .  D
C9          C621   1.520       .  S
C9          C635   1.523       .  S
C10         C590   1.523       .  S
C10         C604   1.527       .  S
C11          C12   1.396       .  D
C11         C565   1.522       .  S
C11         C576   1.504       .  S
C12         C534   1.515       .  S
C12         C548   1.517       .  S
C13          C14   1.397       .  D
C13         C481   1.513       .  S
C13         C492   1.513       .  S
C14         C509   1.518       .  S
C14         C520   1.513       .  S
O15          C30   1.280       .  A
O15         Al23   2.006       .  S
C16          O26   1.264       .  A
C16          O17   1.251       .  A
C16         C467   1.442       .  S
O17         Al19   1.864       .  S
O18          C20   1.258       .  A
O18         Al19   1.887       .  S
Al19         O27   1.870       .  S
Al19         O29   1.845       .  S
Al19         O28   1.761       .  S
C20          O33   1.292       .  A
C20         C607   1.510       .  S
O21          C31   1.277       .  A
O21         Al23   1.997       .  S
O22          C35   1.253       .  A
O22         Al32   1.853       .  S
Al23         O36   2.043       .  S
Al23         O33   2.039       .  S
Al23         O28   1.741       .  S
O24          C31   1.251       .  A
O24         Al32   1.873       .  S
O25          C34   1.260       .  A
O25         Al32   1.866       .  S
O26         Al32   1.897       .  S
O27          C34   1.259       .  A
O28         Al32   1.770       .  S
O29          C30   1.250       .  A
C30         C649   1.516       .  S
C31         C537   1.515       .  S
C34         C453   1.411       .  S
C35          O36   1.293       .  A
C35         C831   1.500       .  S
O37          C52   1.285       .  A
O37         Al45   2.001       .  S
C38          O48   1.250       .  A
C38          O39   1.259   1_545  A
C38         C436   1.400       .  S
O39         Al41   1.871   1_556  S
O40          C42   1.248       .  A
O40         Al41   1.856   1_556  S
Al41         O49   1.865       .  S
Al41         O51   1.892       .  S
Al41         O50   1.746   1_565  S
C42          O55   1.289       .  A
C42         C856   1.514       .  S
O43          C53   1.281       .  A
O43         Al45   1.997   1_546  S
O44          C57   1.245       .  A
O44         Al54   1.852       .  S
Al45         O58   2.055   1_565  S
Al45         O55   2.046   1_554  S
Al45         O50   1.746   1_565  S
O46          C53   1.262       .  A
O46         Al54   1.915   1_556  S
O47          C56   1.256   1_545  A
O47         Al54   1.872       .  S
O48         Al54   1.836   1_556  S
O49          C56   1.253       .  A
O50         Al54   1.764       .  S
O51          C52   1.256       .  A
C52         C562   1.518       .  S
C53         C789   1.523       .  S
C56         C422   1.414       .  S
C57          O58   1.292       .  A
C57         C523   1.491       .  S
O59          C74   1.283       .  A
O59         Al67   1.990   1_554  S
C60          O70   1.253       .  A
C60          O61   1.262   1_565  A
C60         C394   1.421       .  S
O61         Al63   1.882       .  S
O62          C64   1.248       .  A
O62         Al63   1.862       .  S
Al63         O71   1.848   1_556  S
Al63         O73   1.917   1_556  S
Al63         O72   1.756   1_545  S
C64          O77   1.288       .  A
C64         C747   1.492       .  S
O65          C75   1.282       .  A
O65         Al67   1.997   1_565  S
O66          C79   1.249       .  A
O66         Al76   1.876   1_554  S
Al67         O80   2.055   1_546  S
Al67         O77   2.032       .  S
Al67         O72   1.744   1_545  S
O68          C75   1.257       .  A
O68         Al76   1.895       .  S
O69          C78   1.256   1_565  A
O69         Al76   1.854   1_554  S
O70         Al76   1.871       .  S
O71          C78   1.252       .  A
O72         Al76   1.756       .  S
O73          C74   1.266       .  A
C74         C408   1.520       .  S
C75         C674   1.517       .  S
C78         C383   1.424       .  S
C79          O80   1.291       .  A
C79         C632   1.505       .  S
O81          C96   1.285       .  A
O81         Al89   2.009       .  S
C82          O92   1.253       .  A
C82          O83   1.260       .  A
C82         C352   1.430       .  S
O83         Al85   1.891       .  S
O84          C86   1.252       .  A
O84         Al85   1.865       .  S
Al85         O93   1.839       .  S
Al85         O95   1.896       .  S
Al85         O94   1.762       .  S
C86          O99   1.288       .  A
C86         C495   1.500       .  S
O87          C97   1.283       .  A
O87         Al89   1.993       .  S
O88         C101   1.247       .  A
O88         Al98   1.871       .  S
Al89        O102   2.039       .  S
Al89         O99   2.036       .  S
Al89         O94   1.750       .  S
O90          C97   1.262       .  A
O90         Al98   1.896       .  S
O91         C100   1.257       .  A
O91         Al98   1.875       .  S
O92         Al98   1.841       .  S
O93         C100   1.252       .  A
O94         Al98   1.765       .  S
O95          C96   1.261       .  A
C96         C761   1.530       .  S
C97         C366   1.520       .  S
C100        C338   1.436       .  S
C101        O102   1.286       .  A
C101        C719   1.500       .  S
C103        C355   1.563   1_565  S
C103        C380   1.511       .  S
C103        C425   1.550       .  S
C103        C464   1.538       .  S
C104        C341   1.543       .  S
C104        C397   1.541   1_545  S
C104        C439   1.517       .  S
C104        C450   1.535   1_545  S
O105        C120   1.286       .  A
O105       Al113   2.037       .  S
C106        O116   1.257       .  A
C106        O107   1.251       .  A
C106        C327   1.442       .  S
O107       Al109   1.863       .  S
O108        C110   1.251       .  A
O108       Al109   1.865       .  S
Al109       O117   1.848       .  S
Al109       O119   1.890       .  S
Al109       O118   1.763       .  S
C110        O123   1.296       .  A
C110        C551   1.496       .  S
O111        C121   1.283       .  A
O111       Al113   2.002       .  S
O112        C125   1.250       .  A
O112       Al122   1.844       .  S
Al113       O126   2.050       .  S
Al113       O123   2.060       .  S
Al113       O118   1.735       .  S
O114        C121   1.255       .  A
O114       Al122   1.884       .  S
O115        C124   1.264       .  A
O115       Al122   1.874       .  S
O116       Al122   1.884       .  S
O117        C124   1.256       .  A
O118       Al122   1.758       .  S
O119        C120   1.250       .  A
C120        C817   1.527       .  S
C121        C478   1.516       .  S
C124        C310   1.404       .  S
C125        O126   1.291       .  A
C125        C775   1.513       .  S
O127        C142   1.284       .  A
O127       Al135   2.029   1_656  S
C128        O138   1.254       .  A
C128        O129   1.253   1_455  A
C128        C285   1.446       .  S
O129       Al131   1.877   1_554  S
O130        C132   1.260       .  A
O130       Al131   1.880   1_554  S
Al131       O139   1.841       .  S
Al131       O141   1.878       .  S
Al131       O140   1.759   1_655  S
C132        O145   1.296       .  A
C132        C579   1.503       .  S
O133        C143   1.276       .  A
O133       Al135   1.964       .  S
O134        C147   1.238       .  A
O134       Al144   1.814       .  S
Al135       O148   2.036   1_554  S
Al135       O145   2.051   1_455  S
Al135       O140   1.737   1_554  S
O136        C143   1.263       .  A
O136       Al144   1.902   1_554  S
O137        C146   1.269   1_455  A
O137       Al144   1.895       .  S
O138       Al144   1.870   1_554  S
O139        C146   1.254       .  A
O140       Al144   1.766       .  S
O141        C142   1.249       .  A
C142        C845   1.518       .  S
C143        C618   1.515       .  S
C146        C299   1.416       .  S
C147        O148   1.286       .  A
C147        C691   1.485       .  S
O149        C164   1.281       .  A
O149       Al157   1.986   1_655  S
C150        O160   1.248       .  A
C150        O151   1.263   1_455  A
C150        C257   1.402       .  S
O151       Al153   1.880       .  S
O152        C154   1.248       .  A
O152       Al153   1.855       .  S
Al153       O161   1.870   1_556  S
Al153       O163   1.897   1_556  S
Al153       O162   1.757   1_655  S
C154        O167   1.289       .  A
C154        C803   1.503       .  S
O155        C165   1.283       .  A
O155       Al157   2.014   1_556  S
O156        C169   1.251       .  A
O156       Al166   1.855       .  S
Al157       O170   2.062       .  S
Al157       O167   2.044   1_454  S
Al157       O162   1.741   1_554  S
O158        C165   1.254       .  A
O158       Al166   1.897   1_556  S
O159        C168   1.256   1_455  A
O159       Al166   1.868       .  S
O160       Al166   1.839   1_556  S
O161        C168   1.255       .  A
O162       Al166   1.759   1_556  S
O163        C164   1.261       .  A
C164        C506   1.521       .  S
C165        C733   1.519       .  S
C168        C243   1.426       .  S
C169        O170   1.294       .  A
C169        C271   1.508       .  S
O171        C186   1.278       .  A
O171       Al179   1.991       .  S
C172        O182   1.254       .  A
C172        O173   1.258       .  A
C172        C212   1.429       .  S
O173       Al175   1.874       .  S
O174        C176   1.247       .  A
O174       Al175   1.843       .  S
Al175       O183   1.843       .  S
Al175       O185   1.911       .  S
Al175       O184   1.755       .  S
C176        O189   1.296       .  A
C176        C229   1.513       .  S
O177        C187   1.279       .  A
O177       Al179   1.980       .  S
O178        C191   1.248       .  A
O178       Al188   1.850       .  S
Al179       O192   2.053       .  S
Al179       O189   2.076       .  S
Al179       O184   1.746       .  S
O180        C187   1.263       .  A
O180       Al188   1.905       .  S
O181        C190   1.265       .  A
O181       Al188   1.897       .  S
O182       Al188   1.874       .  S
O183        C190   1.252       .  A
O184       Al188   1.751       .  S
O185        C186   1.260       .  A
C186        C705   1.520       .  S
C187        C593   1.524       .  S
C190        C198   1.412       .  S
C191        O192   1.291       .  A
C191        C663   1.515       .  S
C193        C215   1.541   1_655  S
C193        C240   1.539       .  S
C193        C282   1.542       .  S
C193        C324   1.526       .  S
C194        C201   1.537       .  S
C194        C254   1.520       .  S
C194        C296   1.518       .  S
C194        C313   1.534   1_455  S
C195        C196   1.402       .  D
C195        C268   1.521       .  S
C195        C411   1.520       .  S
C196        C226   1.522       .  S
C196        C369   1.511       .  S
C197        C198   1.393       .  A
C197        C202   1.391       .  A
C197        H204   1.085       .  S
C198        C199   1.391       .  A
C199        C200   1.369       .  A
C199        N206   1.441       .  S
C200        C201   1.423       .  A
C200        H205   1.082   1_455  S
C201        C202   1.416       .  A
C202        N203   1.429       .  S
N203        H207   1.046       .  S
N203        H208   1.046       .  S
N206        H209   1.043       .  S
N206        H210   1.046       .  S
C211        C212   1.381       .  A
C211        C216   1.375       .  A
C211        H218   1.086       .  S
C212        C213   1.404       .  A
C213        C214   1.393       .  A
C213        N220   1.439       .  S
C214        C215   1.415       .  A
C214        H219   1.082       .  S
C215        C216   1.431       .  A
C216        N217   1.431   1_455  S
N217        H221   1.046       .  S
N217        H222   1.046       .  S
N220        H223   1.043       .  S
N220        H224   1.046       .  S
C225        C226   1.424       .  A
C225        C230   1.421       .  A
C225        H232   1.082       .  S
C226        C227   1.404       .  A
C227        C228   1.405       .  A
C227        N234   1.431       .  S
C228        C229   1.420       .  A
C228        H233   1.083       .  S
C229        C230   1.413       .  A
C230        N231   1.436       .  S
N231        H235   1.046       .  S
N231        H236   1.043       .  S
N234        H237   1.046       .  S
N234        H238   1.045       .  S
C239        C240   1.417   1_455  A
C239        C244   1.374       .  A
C239        H246   1.079       .  S
C240        C241   1.416       .  A
C241        C242   1.394       .  A
C241        N248   1.429       .  S
C242        C243   1.396       .  A
C242        H247   1.085       .  S
C243        C244   1.394   1_655  A
C244        N245   1.441       .  S
N245        H249   1.046       .  S
N245        H250   1.046       .  S
N248        H251   1.045   1_655  S
N248        H252   1.045       .  S
C253        C254   1.413       .  A
C253        C258   1.382       .  A
C253        H260   1.080   1_455  S
C254        C255   1.436       .  A
C255        C256   1.370       .  A
C255        N262   1.436       .  S
C256        C257   1.376       .  A
C256        H261   1.085       .  S
C257        C258   1.396       .  A
C258        N259   1.439   1_455  S
N259        H263   1.046       .  S
N259        H264   1.044   1_655  S
N262        H265   1.046       .  S
N262        H266   1.046       .  S
C267        C268   1.400       .  A
C267        C272   1.409       .  A
C267        H274   1.084       .  S
C268        C269   1.430       .  A
C269        C270   1.417       .  A
C269        N276   1.432       .  S
C270        C271   1.399       .  A
C270        H275   1.083       .  S
C271        C272   1.425       .  A
C272        N273   1.432       .  S
N273        H277   1.046       .  S
N273        H278   1.046       .  S
N276        H279   1.043       .  S
N276        H280   1.045       .  S
C281        C282   1.409       .  A
C281        C286   1.376       .  A
C281        H288   1.076       .  S
C282        C283   1.410   1_655  A
C283        C284   1.394       .  A
C283        N290   1.432       .  S
C284        C285   1.406       .  A
C284        H289   1.084       .  S
C285        C286   1.409   1_455  A
C286        N287   1.441       .  S
N287        H291   1.046       .  S
N287        H292   1.046       .  S
N290        H293   1.045       .  S
N290        H294   1.046       .  S
C295        C296   1.408       .  A
C295        C300   1.387       .  A
C295        H302   1.079       .  S
C296        C297   1.427   1_455  A
C297        C298   1.364       .  A
C297        N304   1.433       .  S
C298        C299   1.379       .  A
C298        H303   1.087       .  S
C299        C300   1.403   1_655  A
C300        N301   1.435       .  S
N301        H305   1.046       .  S
N301        H306   1.043       .  S
N304        H307   1.046       .  S
N304        H308   1.046       .  S
C309        C310   1.395       .  A
C309        C314   1.389       .  A
C309        H316   1.085       .  S
C310        C311   1.384       .  A
C311        C312   1.364       .  A
C311        N318   1.440       .  S
C312        C313   1.422       .  A
C312        H317   1.082       .  S
C313        C314   1.420       .  A
C314        N315   1.431       .  S
N315        H319   1.046       .  S
N315        H320   1.046       .  S
N318        H321   1.042       .  S
N318        H322   1.046       .  S
C323        C324   1.410       .  A
C323        C328   1.370       .  A
C323        H330   1.083       .  S
C324        C325   1.424       .  A
C325        C326   1.392       .  A
C325        N332   1.439       .  S
C326        C327   1.400       .  A
C326        H331   1.084       .  S
C327        C328   1.406       .  A
C328        N329   1.435       .  S
N329        H333   1.046       .  S
N329        H334   1.046       .  S
N332        H335   1.039       .  S
N332        H336   1.046       .  S
C337        C338   1.406       .  A
C337        C342   1.397       .  A
C337        H344   1.083       .  S
C338        C339   1.393       .  A
C339        C340   1.370       .  A
C339        N346   1.435       .  S
C340        C341   1.421       .  A
C340        H345   1.076       .  S
C341        C342   1.408       .  A
C342        N343   1.432       .  S
N343        H347   1.044       .  S
N343        H348   1.045       .  S
N346        H349   1.046       .  S
N346        H350   1.046       .  S
C351        C352   1.385       .  A
C351        C356   1.381       .  A
C351        H358   1.085       .  S
C352        C353   1.397       .  A
C353        C354   1.385       .  A
C353        N360   1.436       .  S
C354        C355   1.415       .  A
C354        H359   1.079       .  S
C355        C356   1.442       .  A
C356        N357   1.441       .  S
N357        H361   1.046       .  S
N357        H362   1.035       .  S
N360        H363   1.045       .  S
N360        H364   1.046       .  S
C365        C366   1.412       .  A
C365        C370   1.406       .  A
C365        H372   1.083       .  S
C366        C367   1.428       .  A
C367        C368   1.423       .  A
C367        N374   1.434       .  S
C368        C369   1.412       .  A
C368        H373   1.083       .  S
C369        C370   1.411       .  A
C370        N371   1.437       .  S
N371        H375   1.046       .  S
N371        H376   1.043       .  S
N374        H377   1.038       .  S
N374        H378   1.045       .  S
C379        C380   1.421   1_545  A
C379        C384   1.371       .  A
C379        H386   1.082       .  S
C380        C381   1.417       .  A
C381        C382   1.372       .  A
C381        N388   1.433       .  S
C382        C383   1.397   1_565  A
C382        H387   1.083       .  S
C383        C384   1.394       .  A
C384        N385   1.434       .  S
N385        H389   1.045       .  S
N385        H390   1.046       .  S
N388        H391   1.046       .  S
N388        H392   1.046       .  S
C393        C394   1.393       .  A
C393        C398   1.397       .  A
C393        H400   1.084       .  S
C394        C395   1.393       .  A
C395        C396   1.363       .  A
C395        N402   1.433       .  S
C396        C397   1.417       .  A
C396        H401   1.081       .  S
C397        C398   1.424       .  A
C398        N399   1.433       .  S
N399        H403   1.044   1_565  S
N399        H404   1.046       .  S
N402        H405   1.045       .  S
N402        H406   1.042       .  S
C407        C408   1.411       .  A
C407        C412   1.429       .  A
C407        H414   1.083       .  S
C408        C409   1.421       .  A
C409        C410   1.407       .  A
C409        N416   1.432       .  S
C410        C411   1.404       .  A
C410        H415   1.084       .  S
C411        C412   1.421       .  A
C412        N413   1.436       .  S
N413        H417   1.045       .  S
N413        H418   1.037       .  S
N416        H419   1.046       .  S
N416        H420   1.045       .  S
C421        C422   1.385       .  A
C421        C426   1.389       .  A
C421        H428   1.085   1_565  S
C422        C423   1.388       .  A
C423        C424   1.373       .  A
C423        N430   1.441       .  S
C424        C425   1.421       .  A
C424        H429   1.076       .  S
C425        C426   1.443       .  A
C426        N427   1.443       .  S
N427        H431   1.046       .  S
N427        H432   1.039       .  S
N430        H433   1.046       .  S
N430        H434   1.046       .  S
C435        C436   1.393   1_565  A
C435        C440   1.384       .  A
C435        H442   1.083       .  S
C436        C437   1.383       .  A
C437        C438   1.371       .  A
C437        N444   1.439       .  S
C438        C439   1.421       .  A
C438        H443   1.085       .  S
C439        C440   1.421   1_545  A
C440        N441   1.441       .  S
N441        H445   1.046       .  S
N441        H446   1.043       .  S
N444        H447   1.045       .  S
N444        H448   1.046       .  S
C449        C450   1.418       .  A
C449        C454   1.374       .  A
C449        H456   1.072   1_565  S
C450        C451   1.434       .  A
C451        C452   1.390       .  A
C451        N458   1.439       .  S
C452        C453   1.385       .  A
C452        H457   1.085       .  S
C453        C454   1.389       .  A
C454        N455   1.443       .  S
N455        H459   1.046   1_565  S
N455        H460   1.046       .  S
N458        H461   1.041       .  S
N458        H462   1.046       .  S
C463        C464   1.391       .  A
C463        C468   1.373       .  A
C463        H470   1.065       .  S
C464        C465   1.428       .  A
C465        C466   1.390       .  A
C465        N472   1.434       .  S
C466        C467   1.393       .  A
C466        H471   1.084       .  S
C467        C468   1.412       .  A
C468        N469   1.434       .  S
N469        H473   1.046       .  S
N469        H474   1.046       .  S
N472        H475   1.045       .  S
N472        H476   1.046       .  S
C477        C478   1.402       .  A
C477        C482   1.416       .  A
C477        H484   1.083       .  S
C478        C479   1.435       .  A
C479        C480   1.410       .  A
C479        N486   1.438       .  S
C480        C481   1.394       .  A
C480        H485   1.083       .  S
C481        C482   1.422       .  A
C482        N483   1.431       .  S
N483        H487   1.046       .  S
N483        H488   1.045       .  S
N486        H489   1.043       .  S
N486        H490   1.046       .  S
C491        C492   1.410       .  A
C491        C496   1.421       .  A
C491        H498   1.083       .  S
C492        C493   1.421       .  A
C493        C494   1.405       .  A
C493        N500   1.437       .  S
C494        C495   1.404       .  A
C494        H499   1.084       .  S
C495        C496   1.423       .  A
C496        N497   1.436       .  S
N497        H501   1.045       .  S
N497        H502   1.042       .  S
N500        H503   1.044       .  S
N500        H504   1.046       .  S
C505        C506   1.422       .  A
C505        C510   1.413       .  A
C505        H512   1.083       .  S
C506        C507   1.423       .  A
C507        C508   1.415       .  A
C507        N514   1.437       .  S
C508        C509   1.416       .  A
C508        H513   1.084       .  S
C509        C510   1.406       .  A
C510        N511   1.437       .  S
N511        H515   1.045       .  S
N511        H516   1.044       .  S
N514        H517   1.037       .  S
N514        H518   1.046       .  S
C519        C520   1.409       .  A
C519        C524   1.424       .  A
C519        H526   1.083       .  S
C520        C521   1.416       .  A
C521        C522   1.406       .  A
C521        N528   1.433       .  S
C522        C523   1.403       .  A
C522        H527   1.083       .  S
C523        C524   1.419       .  A
C524        N525   1.436       .  S
N525        H529   1.046       .  S
N525        H530   1.045       .  S
N528        H531   1.046       .  S
N528        H532   1.046       .  S
C533        C534   1.419       .  A
C533        C538   1.415       .  A
C533        H540   1.084       .  S
C534        C535   1.415       .  A
C535        C536   1.404       .  A
C535        N542   1.440       .  S
C536        C537   1.419       .  A
C536        H541   1.084       .  S
C537        C538   1.418       .  A
C538        N539   1.437       .  S
N539        H543   1.046       .  S
N539        H544   1.038       .  S
N542        H545   1.038       .  S
N542        H546   1.046       .  S
C547        C548   1.411       .  A
C547        C552   1.423       .  A
C547        H554   1.083       .  S
C548        C549   1.415       .  A
C549        C550   1.406       .  A
C549        N556   1.432       .  S
C550        C551   1.404       .  A
C550        H555   1.084       .  S
C551        C552   1.425       .  A
C552        N553   1.437       .  S
N553        H557   1.045       .  S
N553        H558   1.044       .  S
N556        H559   1.045       .  S
N556        H560   1.046       .  S
C561        C562   1.400       .  A
C561        C566   1.415       .  A
C561        H568   1.083       .  S
C562        C563   1.435       .  A
C563        C564   1.414       .  A
C563        N570   1.438       .  S
C564        C565   1.397       .  A
C564        H569   1.083       .  S
C565        C566   1.424       .  A
C566        N567   1.429       .  S
N567        H571   1.045       .  S
N567        H572   1.046       .  S
N570        H573   1.044       .  S
N570        H574   1.046       .  S
C575        C576   1.400       .  A
C575        C580   1.403       .  A
C575        H582   1.084       .  S
C576        C577   1.416       .  A
C577        C578   1.428       .  A
C577        N584   1.438       .  S
C578        C579   1.412       .  A
C578        H583   1.083       .  S
C579        C580   1.417       .  A
C580        N581   1.435       .  S
N581        H585   1.046       .  S
N581        H586   1.044       .  S
N584        H587   1.043       .  S
N584        H588   1.045       .  S
C589        C590   1.415       .  A
C589        C594   1.415       .  A
C589        H596   1.084       .  S
C590        C591   1.410       .  A
C591        C592   1.414       .  A
C591        N598   1.438       .  S
C592        C593   1.422       .  A
C592        H597   1.083       .  S
C593        C594   1.425       .  A
C594        N595   1.437       .  S
N595        H599   1.045       .  S
N595        H600   1.037       .  S
N598        H601   1.045       .  S
N598        H602   1.045       .  S
C603        C604   1.409       .  A
C603        C608   1.403       .  A
C603        H610   1.083       .  S
C604        C605   1.427       .  A
C605        C606   1.428       .  A
C605        N612   1.434       .  S
C606        C607   1.414       .  A
C606        H611   1.083       .  S
C607        C608   1.416       .  A
C608        N609   1.431       .  S
N609        H613   1.044       .  S
N609        H614   1.041       .  S
N612        H615   1.040       .  S
N612        H616   1.045       .  S
C617        C618   1.420       .  A
C617        C622   1.411       .  A
C617        H624   1.084       .  S
C618        C619   1.423       .  A
C619        C620   1.412       .  A
C619        N626   1.438       .  S
C620        C621   1.415       .  A
C620        H625   1.083       .  S
C621        C622   1.406       .  A
C622        N623   1.431       .  S
N623        H627   1.045       .  S
N623        H628   1.045       .  S
N626        H629   1.036       .  S
N626        H630   1.046       .  S
C631        C632   1.403       .  A
C631        C636   1.406       .  A
C631        H638   1.084       .  S
C632        C633   1.425       .  A
C633        C634   1.426       .  A
C633        N640   1.436       .  S
C634        C635   1.414       .  A
C634        H639   1.083       .  S
C635        C636   1.426       .  A
C636        N637   1.437       .  S
N637        H641   1.046       .  S
N637        H642   1.042       .  S
N640        H643   1.044       .  S
N640        H644   1.046       .  S
C645        C646   1.414       .  A
C645        C650   1.420       .  A
C645        H652   1.082       .  S
C646        C647   1.407       .  A
C647        C648   1.392       .  A
C647        N654   1.439       .  S
C648        C649   1.417       .  A
C648        H653   1.075       .  S
C649        C650   1.423       .  A
C650        N651   1.435       .  S
N651        H655   1.046       .  S
N651        H656   1.038       .  S
N654        H657   1.041       .  S
N654        H658   1.046       .  S
C659        C660   1.398       .  A
C659        C664   1.412       .  A
C659        H666   1.081       .  S
C660        C661   1.425       .  A
C661        C662   1.422       .  A
C661        N668   1.431       .  S
C662        C663   1.403       .  A
C662        H667   1.083       .  S
C663        C664   1.430       .  A
C664        N665   1.438       .  S
N665        H669   1.046       .  S
N665        H670   1.046       .  S
N668        H671   1.046       .  S
N668        H672   1.045       .  S
C673        C674   1.422       .  A
C673        C678   1.401       .  A
C673        H680   1.082       .  S
C674        C675   1.422       .  A
C675        C676   1.417       .  A
C675        N682   1.437       .  S
C676        C677   1.417       .  A
C676        H681   1.083       .  S
C677        C678   1.399       .  A
C678        N679   1.432       .  S
N679        H683   1.045       .  S
N679        H684   1.045       .  S
N682        H685   1.038       .  S
N682        H686   1.046       .  S
C687        C688   1.412       .  A
C687        C692   1.416       .  A
C687        H694   1.083       .  S
C688        C689   1.413       .  A
C689        C690   1.411       .  A
C689        N696   1.436       .  S
C690        C691   1.408       .  A
C690        H695   1.085       .  S
C691        C692   1.420       .  A
C692        N693   1.437       .  S
N693        H697   1.046       .  S
N693        H698   1.044       .  S
N696        H699   1.045       .  S
N696        H700   1.046       .  S
C701        C702   1.419       .  A
C701        C706   1.417       .  A
C701        H708   1.084       .  S
C702        C703   1.417       .  A
C703        C704   1.407       .  A
C703        N710   1.439       .  S
C704        C705   1.418       .  A
C704        H709   1.083       .  S
C705        C706   1.421       .  A
C706        N707   1.437       .  S
N707        H711   1.045       .  S
N707        H712   1.039       .  S
N710        H713   1.038       .  S
N710        H714   1.045       .  S
C715        C716   1.413       .  A
C715        C720   1.425       .  A
C715        H722   1.083       .  S
C716        C717   1.415       .  A
C717        C718   1.406       .  A
C717        N724   1.431       .  S
C718        C719   1.402       .  A
C718        H723   1.082       .  S
C719        C720   1.424       .  A
C720        N721   1.437       .  S
N721        H725   1.045       .  S
N721        H726   1.044       .  S
N724        H727   1.045       .  S
N724        H728   1.046       .  S
C729        C730   1.395       .  A
C729        C734   1.410       .  A
C729        H736   1.084       .  S
C730        C731   1.425       .  A
C731        C732   1.418       .  A
C731        N738   1.431       .  S
C732        C733   1.402       .  A
C732        H737   1.083       .  S
C733        C734   1.434       .  A
C734        N735   1.432       .  S
N735        H739   1.046       .  S
N735        H740   1.046       .  S
N738        H741   1.045       .  S
N738        H742   1.046       .  S
C743        C744   1.417       .  A
C743        C748   1.406       .  A
C743        H750   1.081       .  S
C744        C745   1.414       .  A
C745        C746   1.425       .  A
C745        N752   1.435       .  S
C746        C747   1.416       .  A
C746        H751   1.083       .  S
C747        C748   1.403       .  A
C748        N749   1.437       .  S
N749        H753   1.045       .  S
N749        H754   1.046       .  S
N752        H755   1.045       .  S
N752        H756   1.045       .  S
C757        C758   1.416       .  A
C757        C762   1.427       .  A
C757        H764   1.083       .  S
C758        C759   1.415       .  A
C759        C760   1.405       .  A
C759        N766   1.437       .  S
C760        C761   1.417       .  A
C760        H765   1.083       .  S
C761        C762   1.429       .  A
C762        N763   1.437       .  S
N763        H767   1.046       .  S
N763        H768   1.038       .  S
N766        H769   1.042       .  S
N766        H770   1.045       .  S
C771        C772   1.422       .  A
C771        C776   1.420       .  A
C771        H778   1.082       .  S
C772        C773   1.406       .  A
C773        C774   1.408       .  A
C773        N780   1.430       .  S
C774        C775   1.418       .  A
C774        H779   1.084       .  S
C775        C776   1.415       .  A
C776        N777   1.436       .  S
N777        H781   1.046       .  S
N777        H782   1.043       .  S
N780        H783   1.046       .  S
N780        H784   1.045       .  S
C785        C786   1.398       .  A
C785        C790   1.410       .  A
C785        H792   1.084       .  S
C786        C787   1.423       .  A
C787        C788   1.425       .  A
C787        N794   1.435       .  S
C788        C789   1.407       .  A
C788        H793   1.083       .  S
C789        C790   1.428       .  A
C790        N791   1.432       .  S
N791        H795   1.045       .  S
N791        H796   1.046       .  S
N794        H797   1.045       .  S
N794        H798   1.045       .  S
C799        C800   1.416       .  A
C799        C804   1.420       .  A
C799        H806   1.082       .  S
C800        C801   1.413       .  A
C801        C802   1.415       .  A
C801        N808   1.437       .  S
C802        C803   1.411       .  A
C802        H807   1.084       .  S
C803        C804   1.418       .  A
C804        N805   1.437       .  S
N805        H809   1.045       .  S
N805        H810   1.044       .  S
N808        H811   1.045       .  S
N808        H812   1.046       .  S
C813        C814   1.392       .  A
C813        C818   1.405       .  A
C813        H820   1.084       .  S
C814        C815   1.425       .  A
C815        C816   1.429       .  A
C815        N822   1.435       .  S
C816        C817   1.407       .  A
C816        H821   1.083       .  S
C817        C818   1.434       .  A
C818        N819   1.433       .  S
N819        H823   1.043       .  S
N819        H824   1.046       .  S
N822        H825   1.045       .  S
N822        H826   1.045       .  S
C827        C828   1.412       .  A
C827        C832   1.419       .  A
C827        H834   1.083       .  S
C828        C829   1.414       .  A
C829        C830   1.413       .  A
C829        N836   1.437       .  S
C830        C831   1.409       .  A
C830        H835   1.084       .  S
C831        C832   1.420       .  A
C832        N833   1.436       .  S
N833        H837   1.045       .  S
N833        H838   1.043       .  S
N836        H839   1.045       .  S
N836        H840   1.046       .  S
C841        C842   1.416       .  A
C841        C846   1.429       .  A
C841        H848   1.083       .  S
C842        C843   1.417       .  A
C843        C844   1.403       .  A
C843        N850   1.438       .  S
C844        C845   1.411       .  A
C844        H849   1.081       .  S
C845        C846   1.427       .  A
C846        N847   1.437       .  S
N847        H851   1.046       .  S
N847        H852   1.041       .  S
N850        H853   1.044       .  S
N850        H854   1.045       .  S
C855        C856   1.402       .  A
C855        C860   1.419       .  A
C855        H862   1.083       .  S
C856        C857   1.435       .  A
C857        C858   1.404       .  A
C857        N864   1.433       .  S
C858        C859   1.397       .  A
C858        H863   1.082       .  S
C859        C860   1.424       .  A
C860        N861   1.431       .  S
N861        H865   1.046       .  S
N861        H866   1.045       .  S
N864        H867   1.045       .  S
N864        H868   1.045       .  S
