geometry optimzed in LAMMPS
_audit_creation_date              2020-11-30 
_audit_creation_method            'lammps2cif' 
_symmetry_space_group_name_H-M    'P1' 
_symmetry_Int_Tables_number       1 
_symmetry_cell_setting            triclinic 
loop_ 
_symmetry_equiv_pos_as_xyz 
  x,y,z 
_cell_length_a                    36.32353227949664 
_cell_length_b                    36.27279928502965 
_cell_length_c                    36.51012024991319 
_cell_angle_alpha                 90.14584896962408 
_cell_angle_beta                  89.90127009508123 
_cell_angle_gamma                 90.15825333606534 
loop_ 
_atom_site_label 
_atom_site_type_symbol 
_atom_site_fract_x 
_atom_site_fract_y 
_atom_site_fract_z 
_atom_site_charge 
C1          C  0.22171833  0.85973332  0.96843930     0.03580
C2          C  0.22100758  0.84128408  0.00193231    -0.12570
C3          C  0.22027425  0.86084461  0.03487433     0.01080
C4          C  0.22237274  0.89950853  0.03453682    -0.11090
C5          C  0.22325107  0.91859958  0.00107107     0.03570
C6          C  0.22280701  0.89848821  0.96805399    -0.10510
H7          H  0.22017627  0.81139380  0.00242324     0.09170
H8          H  0.22184720  0.91469398  0.06013570     0.06700
H9          H  0.22269355  0.91300984  0.94215206     0.06550
C10         C  0.63655258  0.13373392  0.03209408     0.03580
C11         C  0.63701471  0.15194410  0.99833320    -0.12570
C12         C  0.62924688  0.13300470  0.96561754     0.01080
C13         C  0.62194216  0.09471357  0.96738806    -0.11090
C14         C  0.62412259  0.07568343  0.00077830     0.03570
C15         C  0.63108754  0.09543807  0.03311310    -0.10510
H16         H  0.64460878  0.18081836  0.99774561     0.09170
H17         H  0.61618948  0.07917753  0.94268098     0.06700
H18         H  0.63270545  0.08093075  0.05897752     0.06550
C19         C  0.96551139  0.70961081  0.13439280     0.03580
C20         C  0.93237255  0.70796732  0.15406291    -0.12570
C21         C  0.89885228  0.70337524  0.13582903     0.01080
C22         C  0.89840437  0.69966625  0.09757773    -0.11090
C23         C  0.93134930  0.70036861  0.07737198     0.03570
C24         C  0.96487165  0.70550324  0.09602168    -0.10510
H25         H  0.93251692  0.71099815  0.18361072     0.09170
H26         H  0.87229140  0.69673896  0.08351924     0.06700
H27         H  0.99033746  0.70723521  0.08060483     0.06550
C28         C  0.89736891  0.28872351  0.86077976     0.03580
C29         C  0.93107913  0.28933600  0.84216368    -0.12570
C30         C  0.96430799  0.29051381  0.86132279     0.01080
C31         C  0.96400928  0.29184169  0.89974337    -0.11090
C32         C  0.93045274  0.29139691  0.91900070     0.03570
C33         C  0.89718865  0.28984500  0.89936694    -0.10510
H34         H  0.93157914  0.28823077  0.81248214     0.09170
H35         H  0.98980271  0.29216474  0.91462939     0.06700
H36         H  0.87133187  0.28830849  0.91414030     0.06550
C37         C  0.63405736  0.85820093  0.96535586     0.03580
C38         C  0.63118117  0.89689520  0.96623134    -0.12570
C39         C  0.63047886  0.91586036  0.99982346     0.01080
C40         C  0.63269479  0.89583470  0.03266252    -0.11090
C41         C  0.63688236  0.85726232  0.03208554     0.03570
C42         C  0.63642499  0.83871996  0.99836108    -0.10510
H43         H  0.63013625  0.91226527  0.94083916     0.09170
H44         H  0.63295856  0.91053240  0.05854423     0.06700
H45         H  0.63923273  0.80898689  0.99770936     0.06550
C46         C  0.22339677  0.13602109  0.96388467     0.03580
C47         C  0.22570790  0.09748722  0.96421897    -0.12570
C48         C  0.22646101  0.07838589  0.99756849     0.01080
C49         C  0.22373347  0.09826670  0.03056263    -0.11090
C50         C  0.22192738  0.13714602  0.03059325     0.03570
C51         C  0.22326550  0.15566895  0.99688386    -0.10510
H52         H  0.22605520  0.08236702  0.93857199     0.09170
H53         H  0.22215798  0.08319868  0.05609421     0.06700
H54         H  0.22337110  0.18549156  0.99595082     0.06550
C55         C  0.96405518  0.70504205  0.86058784     0.03580
C56         C  0.96367050  0.70446603  0.89896432    -0.12570
C57         C  0.93011820  0.70213341  0.91811349     0.01080
C58         C  0.89696667  0.70060062  0.89811956    -0.11090
C59         C  0.89730067  0.70078058  0.85950986     0.03570
C60         C  0.93116928  0.70188887  0.84114890    -0.10510
H61         H  0.98937152  0.70672838  0.91385205     0.09170
H62         H  0.87095250  0.70000360  0.91264471     0.06700
H63         H  0.93201986  0.70181394  0.81146107     0.06550
C64         C  0.89903293  0.28864028  0.13583872     0.03580
C65         C  0.89902408  0.29048512  0.09734857    -0.12570
C66         C  0.93242261  0.29251270  0.07783734     0.01080
C67         C  0.96585150  0.29135319  0.09715386    -0.11090
C68         C  0.96589291  0.28926008  0.13553488     0.03570
C69         C  0.93254729  0.28802155  0.15464320    -0.10510
H70         H  0.87316084  0.28970203  0.08260085     0.09170
H71         H  0.99175095  0.29184939  0.08237102     0.06700
H72         H  0.93270341  0.28557141  0.18424390     0.06550
C73         C  0.79509561  0.95873882  0.29682273     0.03580
C74         C  0.77565816  0.99180369  0.29546193    -0.12570
C75         C  0.79407920  0.02559198  0.29755812     0.01080
C76         C  0.83258388  0.02621076  0.30136011    -0.11090
C77         C  0.85245566  0.99302598  0.30278356     0.03570
C78         C  0.83356687  0.95923435  0.30016631    -0.10510
H79         H  0.74600183  0.99119767  0.29199963     0.09170
H80         H  0.84711723  0.05234053  0.30196033     0.06700
H81         H  0.84876538  0.93356182  0.30002602     0.06550
C82         C  0.06679143  0.02497662  0.70434105     0.03580
C83         C  0.08521938  0.99167371  0.71041450    -0.12570
C84         C  0.06641492  0.95809087  0.70845202     0.01080
C85         C  0.02860006  0.95747926  0.70083395    -0.11090
C86         C  0.00963232  0.99054950  0.69474791     0.03570
C87         C  0.02902976  0.02411429  0.69540989    -0.10510
H88         H  0.11417297  0.99179125  0.71758808     0.09170
H89         H  0.01381794  0.93148149  0.70065153     0.06700
H90         H  0.01429711  0.04959882  0.69072436     0.06550
C91         C  0.79230019  0.96186032  0.70331169     0.03580
C92         C  0.83082450  0.96141310  0.70021801    -0.12570
C93         C  0.85043447  0.99447636  0.69505202     0.01080
C94         C  0.83118034  0.02799296  0.69334984    -0.11090
C95         C  0.79266541  0.02836155  0.69685845     0.03570
C96         C  0.77341221  0.99526179  0.70127656    -0.10510
H97         H  0.84552656  0.93556167  0.70253694     0.09170
H98         H  0.84619515  0.05374997  0.69109083     0.06700
H99         H  0.74376206  0.99567452  0.70484781     0.06550
C100        C  0.07026539  0.02879711  0.29321181     0.03580
C101        C  0.03169113  0.02919690  0.29705819    -0.12570
C102        C  0.01153912  0.99604866  0.29665150     0.01080
C103        C  0.03017063  0.96238911  0.29289277    -0.11090
C104        C  0.06856765  0.96198686  0.28880834     0.03570
C105        C  0.08837072  0.99500696  0.28936137    -0.10510
H106        H  0.01721948  0.05522409  0.29892771     0.09170
H107        H  0.01479331  0.93675170  0.29206531     0.06700
H108        H  0.11806297  0.99434612  0.28624477     0.06550
C109        C  0.46767477  0.35683983  0.21082722     0.03580
C110        C  0.43372580  0.33827703  0.21164292    -0.12570
C111        C  0.40045909  0.35773592  0.21019060     0.01080
C112        C  0.40137427  0.39615207  0.20522304    -0.11090
C113        C  0.43505663  0.41509104  0.20354432     0.03570
C114        C  0.46809779  0.39537942  0.20627423    -0.10510
H115        H  0.43318067  0.30858303  0.21466156     0.09170
H116        H  0.37589760  0.41151752  0.20341969     0.06700
H117        H  0.49401311  0.41025065  0.20616788     0.06550
Fe118      Fe  0.64588301  0.20475915  0.24616641     1.65780
Fe119      Fe  0.68610820  0.28127402  0.21179078     1.73250
Fe120      Fe  0.72043834  0.24142813  0.28783232     1.54410
O121        O  0.68225286  0.22341954  0.32715175    -0.81220
O122        O  0.73883619  0.26825639  0.19836696    -0.79530
O123        O  0.62871355  0.21522622  0.29837814    -0.83730
O124        O  0.68052741  0.16277484  0.26464052    -0.78580
O125        O  0.70829022  0.29411992  0.30318320    -0.80360
O126        O  0.66869615  0.24666415  0.16926334    -0.83100
C127        C  0.71476706  0.16046059  0.27157814     0.97660
C128        C  0.64766797  0.21709990  0.32739451     1.05100
O129        O  0.68406829  0.24251492  0.24872640    -1.12080
O130        O  0.63333158  0.29670482  0.22256135    -0.74520
O131        O  0.60576827  0.24193064  0.22776602    -0.78000
O132        O  0.73506543  0.18856707  0.27561503    -0.78690
C133        C  0.60468514  0.27676923  0.22303922     0.96570
O134        O  0.66075324  0.19106469  0.19387580    -0.76650
O135        O  0.70405796  0.32167924  0.24887682    -0.81840
C136        C  0.76641329  0.26499358  0.21915981     0.99190
C137        C  0.70758208  0.32277380  0.28357440     1.05110
O138        O  0.76349889  0.25928615  0.25352573    -0.77490
C139        C  0.66427444  0.21195716  0.16640863     1.03410
C140        C  0.39782305  0.35414870  0.80304503     0.03580
C141        C  0.43187577  0.33602532  0.80302549    -0.12570
C142        C  0.46470237  0.35541549  0.79746870     0.01080
C143        C  0.46408850  0.39415408  0.79761074    -0.11090
C144        C  0.43062400  0.41309702  0.80134092     0.03570
C145        C  0.39743812  0.39304819  0.80245063    -0.10510
H146        H  0.43280247  0.30624977  0.80513808     0.09170
H147        H  0.48944903  0.40960017  0.79428037     0.06700
H148        H  0.37156324  0.40779793  0.80195672     0.06550
C149        C  0.56790460  0.20070849  0.53010209     0.03580
C150        C  0.58635008  0.20109938  0.49635717    -0.12570
C151        C  0.56687260  0.20271392  0.46332584     0.01080
C152        C  0.52821679  0.20053518  0.46394261    -0.11090
C153        C  0.50907789  0.19906267  0.49741336     0.03570
C154        C  0.52911107  0.19986122  0.53038828    -0.10510
H155        H  0.61618552  0.20120809  0.49573892     0.09170
H156        H  0.51295500  0.20134231  0.43847814     0.06700
H157        H  0.51439094  0.20027904  0.55621090     0.06550
Fe158      Fe  0.71880005  0.24334903  0.70970518     1.65780
Fe159      Fe  0.68090143  0.27975133  0.78609044     1.73250
Fe160      Fe  0.64229983  0.20540203  0.74624504     1.54410
O161        O  0.62728893  0.21980872  0.69464947    -0.81220
O162        O  0.66194711  0.24214206  0.82617747    -0.79530
O163        O  0.68218602  0.22648681  0.66805767    -0.83730
O164        O  0.73308080  0.19047421  0.72054456    -0.78580
O165        O  0.60139022  0.24118525  0.76663225    -0.80360
O166        O  0.73317568  0.26697514  0.80076057    -0.83100
C167        C  0.71256672  0.16237699  0.72177033     0.97660
C168        C  0.64732966  0.22182071  0.66634245     1.05100
O169        O  0.68073224  0.24286661  0.74732856    -1.12080
O170        O  0.69918202  0.32222245  0.75104465    -0.74520
O171        O  0.70736529  0.29628051  0.69623472    -0.78000
O172        O  0.67778269  0.16422338  0.72624985    -0.78690
C173        C  0.70471636  0.32441984  0.71653653     0.96570
O174        O  0.76032522  0.26024209  0.74636933    -0.76650
O175        O  0.62892121  0.29543540  0.77423539    -0.81840
C176        C  0.65635637  0.20729231  0.82670389     0.99190
C177        C  0.60033399  0.27566941  0.77368032     1.05110
O178        O  0.65498411  0.18845875  0.79764512    -0.77490
C179        C  0.76171878  0.26513424  0.78100413     1.03410
C180        C  0.71982279  0.46062331  0.36174726     0.03580
C181        C  0.71914826  0.49388687  0.34251420    -0.12570
C182        C  0.71920647  0.52770207  0.36116396     0.01080
C183        C  0.72258828  0.52803835  0.39962166    -0.11090
C184        C  0.72400660  0.49478397  0.41933872     0.03570
C185        C  0.72248460  0.46114436  0.40013785    -0.10510
H186        H  0.71718175  0.49341438  0.31288906     0.09170
H187        H  0.72271029  0.55405000  0.41428691     0.06700
H188        H  0.72307533  0.43537137  0.41508391     0.06550
C189        C  0.39680228  0.63144560  0.20334923     0.03580
C190        C  0.39743297  0.59289402  0.20033018    -0.12570
C191        C  0.43108657  0.57421831  0.19677008     0.01080
C192        C  0.46416777  0.59438892  0.19702544    -0.11090
C193        C  0.46357155  0.63291179  0.20111429     0.03570
C194        C  0.42986709  0.65123626  0.20388056    -0.10510
H195        H  0.37184693  0.57745772  0.20098455     0.09170
H196        H  0.49027818  0.58004087  0.19568427     0.06700
H197        H  0.42939601  0.68093438  0.20737350     0.06550
Fe198      Fe  0.72016058  0.74544729  0.28493990     1.65780
Fe199      Fe  0.64230218  0.78141393  0.24934194     1.73250
Fe200      Fe  0.68146415  0.70646623  0.20962637     1.54420
O201        O  0.73413138  0.71861854  0.19468429    -0.81220
O202        O  0.60121225  0.74431477  0.23305618    -0.79530
O203        O  0.76137401  0.72899472  0.24836505    -0.83730
O204        O  0.71005774  0.69234358  0.29967889    -0.78580
O205        O  0.66357793  0.74305700  0.16884392    -0.80360
O206        O  0.62915870  0.76886304  0.30205265    -0.83100
C207        C  0.70683209  0.66377846  0.27996645     0.97660
C208        C  0.76258967  0.72331889  0.21397688     1.05100
O209        O  0.68123529  0.74434063  0.24790711    -1.12080
O210        O  0.67822944  0.82377668  0.26597397    -0.74520
O211        O  0.73364800  0.79833327  0.27262385    -0.78000
O212        O  0.69919949  0.66509711  0.24583485    -0.78690
C213        C  0.71296475  0.82611921  0.27055721     0.96570
O214        O  0.68461016  0.76250590  0.32723365    -0.76650
O215        O  0.65178341  0.79665722  0.19651558    -0.81840
C216        C  0.60013577  0.71010227  0.22513978     0.99190
C217        C  0.65511838  0.77719054  0.16790087     1.05110
O218        O  0.62869306  0.69082979  0.22043139    -0.77490
C219        C  0.64987004  0.76681943  0.32968564     1.03410
C220        C  0.56862614  0.78161782  0.53162219     0.03580
C221        C  0.58807191  0.78334012  0.49842032    -0.12570
C222        C  0.56951916  0.78149333  0.46494495     0.01080
C223        C  0.53089062  0.78165634  0.46435604    -0.11090
C224        C  0.51087403  0.78298277  0.49723173     0.03570
C225        C  0.52982437  0.78224992  0.53076582    -0.10510
H226        H  0.61788835  0.78421894  0.49846248     0.09170
H227        H  0.51648529  0.78057144  0.43839722     0.06700
H228        H  0.51421885  0.78118296  0.55605980     0.06550
C229        C  0.72373372  0.46113043  0.63671815     0.03580
C230        C  0.72696659  0.46052505  0.59827784    -0.12570
C231        C  0.73020927  0.49350800  0.57831938     0.01080
C232        C  0.72905182  0.52737028  0.59712745    -0.11090
C233        C  0.72332960  0.52842626  0.63528727     0.03570
C234        C  0.72167993  0.49519448  0.65473606    -0.10510
H235        H  0.72671176  0.43441793  0.58379063     0.09170
H236        H  0.73104733  0.55284471  0.58181613     0.06700
H237        H  0.71792510  0.49581585  0.68416949     0.06550
C238        C  0.39842340  0.63164649  0.79909902     0.03580
C239        C  0.39780493  0.59288480  0.80027598    -0.12570
C240        C  0.43087343  0.57281955  0.79985862     0.01080
C241        C  0.46468404  0.59180916  0.79836000    -0.11090
C242        C  0.46529656  0.63057500  0.79745220     0.03570
C243        C  0.43222489  0.65006795  0.79830195    -0.10510
H244        H  0.37172356  0.57830330  0.80017790     0.09170
H245        H  0.49025934  0.57653717  0.79712534     0.06700
H246        H  0.43283236  0.67995648  0.79742643     0.06550
Fe247      Fe  0.71670849  0.74571341  0.71143245     1.65780
Fe248      Fe  0.67976241  0.70712706  0.78695036     1.73250
Fe249      Fe  0.64236164  0.78402292  0.75111057     1.54420
O250        O  0.67828910  0.82507757  0.73173776    -0.81220
O251        O  0.62692600  0.69283081  0.77531678    -0.79530
O252        O  0.73282673  0.79806838  0.72414115    -0.83730
O253        O  0.67974933  0.76456546  0.67157740    -0.78580
O254        O  0.65707154  0.79854373  0.80298545    -0.80360
O255        O  0.69720809  0.66602844  0.75009799    -0.83100
C256        C  0.64514682  0.77053169  0.67053179     0.97660
C257        C  0.71289915  0.82649382  0.72607350     1.05100
O258        O  0.67962350  0.74558976  0.74981435    -1.12080
O259        O  0.73270723  0.71850347  0.80112404    -0.74520
O260        O  0.75831231  0.72657467  0.74629436    -0.78000
O261        O  0.62558134  0.77208284  0.69918938    -0.78690
C262        C  0.76072466  0.72042671  0.78057622     0.96570
O263        O  0.70333227  0.69351084  0.69592669    -0.76650
O264        O  0.66245479  0.74317562  0.82885310    -0.81840
C265        C  0.59892555  0.71341399  0.77467602     0.99190
C266        C  0.65906635  0.77814847  0.83095521     1.05110
O267        O  0.60114879  0.74825263  0.77052806    -0.77490
C268        C  0.70199584  0.66482909  0.71546661     1.03410
C269        C  0.29420332  0.77799023  0.53430928     0.03580
C270        C  0.33281891  0.77852680  0.53324011    -0.12570
C271        C  0.35149493  0.77812143  0.49962150     0.01080
C272        C  0.33122248  0.77687527  0.46688314    -0.11090
C273        C  0.29238109  0.77733154  0.46744035     0.03570
C274        C  0.27432682  0.77908938  0.50143303    -0.10510
H275        H  0.34839589  0.77820859  0.55853370     0.09170
H276        H  0.34586158  0.77548948  0.44104215     0.06700
H277        H  0.24462620  0.78122335  0.50258206     0.06550
C278        C  0.15023068  0.52870432  0.63694351     0.03580
C279        C  0.14687633  0.49575430  0.65609196    -0.12570
C280        C  0.13551778  0.46362639  0.63826401     0.01080
C281        C  0.12605969  0.46519609  0.60092362    -0.11090
C282        C  0.13155748  0.49766224  0.58003469     0.03570
C283        C  0.14508784  0.52914250  0.59885063    -0.10510
H284        H  0.15352940  0.49526511  0.68501298     0.09170
H285        H  0.11493894  0.44045789  0.58869716     0.06700
H286        H  0.15150788  0.55436427  0.58455068     0.06550
Fe287      Fe  0.22121802  0.78328626  0.75300393     1.65780
Fe288      Fe  0.14571273  0.74517780  0.71377275     1.73250
Fe289      Fe  0.18184624  0.70719274  0.79033352     1.54410
O290        O  0.23498122  0.69300529  0.78115141    -0.81220
O291        O  0.10328781  0.72731485  0.74860728    -0.79530
O292        O  0.26247436  0.74685323  0.77014823    -0.83730
O293        O  0.20927308  0.79768558  0.80528452    -0.78580
O294        O  0.16682225  0.66546453  0.75319535    -0.80360
O295        O  0.13068221  0.79803077  0.72521223    -0.83100
C296        C  0.20415868  0.77834981  0.83356000     0.97660
C297        C  0.26357549  0.71249337  0.77737385     1.05100
O298        O  0.18293555  0.74524940  0.75243833    -1.12080
O299        O  0.18256093  0.76305002  0.67348731    -0.74520
O300        O  0.23659073  0.77237189  0.70066030    -0.78000
O301        O  0.19700008  0.74392451  0.83219220    -0.78690
C302        C  0.21697642  0.76982394  0.67227765     0.96570
O303        O  0.18506484  0.82483361  0.73596976    -0.76650
O304        O  0.15831997  0.69247911  0.69899467    -0.81840
C305        C  0.10085169  0.72035356  0.78271064     0.99190
C306        C  0.16202121  0.66409206  0.71861790     1.05110
O307        O  0.12855543  0.71777462  0.80329397    -0.77490
C308        C  0.15071190  0.82634141  0.72901442     1.03410
C309        C  0.29021845  0.19961223  0.52992811     0.03580
C310        C  0.32855590  0.19312318  0.53041124    -0.12570
C311        C  0.34926154  0.19281022  0.49782234     0.01080
C312        C  0.33109441  0.19718588  0.46420096    -0.11090
C313        C  0.29287856  0.20259619  0.46331569     0.03570
C314        C  0.27297624  0.20498465  0.49606203    -0.10510
H315        H  0.34268501  0.18922609  0.55620906     0.09170
H316        H  0.34670253  0.19709649  0.43887210     0.06700
H317        H  0.24403778  0.21199315  0.49490692     0.06550
Fe318      Fe  0.14104082  0.24458226  0.71073618     1.65780
Fe319      Fe  0.18218717  0.28369253  0.78463580     1.73250
Fe320      Fe  0.21667700  0.20563854  0.74744719     1.54410
O321        O  0.18045902  0.16452388  0.72858425    -0.81220
O322        O  0.23518474  0.29620568  0.77142035    -0.79530
O323        O  0.12617930  0.19159825  0.72184716    -0.83730
O324        O  0.17745460  0.22805198  0.66877800    -0.78580
O325        O  0.20350221  0.19132007  0.79961677    -0.80360
O326        O  0.16544406  0.32530528  0.74870644    -0.83100
C327        C  0.21222269  0.22267861  0.66704979     0.97660
C328        C  0.14586155  0.16299282  0.72309525     1.05100
O329        O  0.17973363  0.24467804  0.74762976    -1.12080
O330        O  0.12930447  0.27508031  0.80093363    -0.74520
O331        O  0.10062438  0.26125383  0.74850823    -0.78000
O332        O  0.23186890  0.21801095  0.69527749    -0.78690
C333        C  0.10032490  0.26995036  0.78244807     0.96570
O334        O  0.15181865  0.29754633  0.69596155    -0.76650
O335        O  0.19959286  0.24701831  0.82558551    -0.81840
C336        C  0.26247342  0.27471355  0.77243843     0.99190
C337        C  0.20412148  0.21217063  0.82742437     1.05110
O338        O  0.25893506  0.24023758  0.76684840    -0.77490
C339        C  0.15765093  0.32628667  0.71471245     1.03410
C340        C  0.13770542  0.53074737  0.36023094     0.03580
C341        C  0.12980708  0.53036681  0.39792467    -0.12570
C342        C  0.13158814  0.49730068  0.41862456     0.01080
C343        C  0.14231748  0.46501610  0.39927251    -0.11090
C344        C  0.14626543  0.46493096  0.36100550     0.03570
C345        C  0.14379992  0.49779102  0.34166213    -0.10510
H346        H  0.12322450  0.55662101  0.41025393     0.09170
H347        H  0.14816338  0.43955630  0.41318655     0.06700
H348        H  0.14829986  0.49788051  0.31228878     0.06550
Fe349      Fe  0.22150082  0.78451783  0.24836848     1.65780
Fe350      Fe  0.18310510  0.70819538  0.21124530     1.73250
Fe351      Fe  0.14426039  0.74811211  0.28539298     1.54420
O352        O  0.18018670  0.76578307  0.32687352    -0.81220
O353        O  0.13123344  0.72076772  0.19478591    -0.79530
O354        O  0.23523313  0.77307028  0.30096038    -0.83730
O355        O  0.18587486  0.82678664  0.26495864    -0.78580
O356        O  0.15515275  0.69544760  0.30097557    -0.80360
O357        O  0.20274542  0.74341843  0.16998243    -0.83100
C358        C  0.15136101  0.82893256  0.27088144     0.97660
C359        C  0.21477911  0.77173730  0.32893680     1.05100
O360        O  0.18281292  0.74708744  0.24824389    -1.12080
O361        O  0.23513234  0.69273785  0.22541626    -0.74520
O362        O  0.26239963  0.74756932  0.23158936    -0.78000
O363        O  0.13065136  0.80100758  0.27340287    -0.78690
C364        C  0.26362761  0.71271036  0.22758488     0.96570
O365        O  0.21085854  0.79861233  0.19588066    -0.76650
O366        O  0.16297031  0.66765256  0.24706321    -0.81840
C367        C  0.10240147  0.72378871  0.21399646     0.99190
C368        C  0.15703244  0.66674101  0.28145286     1.05110
O369        O  0.10328011  0.73069633  0.24834026    -0.77490
C370        C  0.20900391  0.77798678  0.16803867     1.03410
Fe371      Fe  0.21901525  0.20960903  0.24990257     1.65780
Fe372      Fe  0.14254839  0.24727916  0.28685465     1.73250
Fe373      Fe  0.18132625  0.28490156  0.21144764     1.54410
O374        O  0.23362322  0.30033641  0.22456867    -0.81220
O375        O  0.10161416  0.26412977  0.25018726    -0.79530
O376        O  0.26031745  0.24559097  0.23149017    -0.83730
O377        O  0.20742457  0.19387415  0.19779406    -0.78580
O378        O  0.16270652  0.32659573  0.24681001    -0.80360
O379        O  0.12806921  0.19432244  0.27563488    -0.83100
C380        C  0.20682488  0.21383528  0.16950717     0.97660
C381        C  0.26198796  0.28031103  0.22645800     1.05100
O382        O  0.18081050  0.24715862  0.24930780    -1.12080
O383        O  0.17831812  0.23019210  0.32830814    -0.74520
O384        O  0.23340875  0.22335368  0.30206506    -0.78000
O385        O  0.20063239  0.24844465  0.17099194    -0.78690
C386        C  0.21309521  0.22617577  0.33006559     0.96570
O387        O  0.18297572  0.16806363  0.26790440    -0.76650
O388        O  0.15434114  0.30022756  0.30131050    -0.81840
C389        C  0.10039623  0.26900731  0.21564902     0.99190
C390        C  0.15705386  0.32840912  0.28122954     1.05110
O391        O  0.12887293  0.27211395  0.19588359    -0.77490
C392        C  0.14831370  0.16613205  0.27328913     1.03410
C393        C  0.11856443  0.57436290  0.31174170    -0.11810
C394        C  0.14277924  0.56573994  0.34032936     0.05190
C395        C  0.17222000  0.58992973  0.34873647    -0.07100
C396        C  0.17606137  0.62261733  0.32870251    -0.07850
C397        C  0.15188417  0.63127517  0.30015152    -0.02400
C398        C  0.12230994  0.60726044  0.29187741     0.04420
N399        N  0.09480577  0.61671414  0.26521135     0.66930
H400        H  0.09589622  0.55582499  0.30572710     0.15830
H401        H  0.19860041  0.64125998  0.33492219     0.15540
N402        N  0.19892379  0.58142281  0.37659515     0.74630
O403        O  0.07828279  0.59163888  0.24764010    -0.38820
O404        O  0.08306342  0.64936005  0.26310666    -0.38760
O405        O  0.20996466  0.54876807  0.38103366    -0.39470
O406        O  0.21481969  0.60711532  0.39385837    -0.39530
C407        C  0.18582168  0.38415260  0.30712030    -0.11810
C408        C  0.15352678  0.36442259  0.29931426     0.05190
C409        C  0.11914286  0.37778605  0.31185420    -0.07100
C410        C  0.11833162  0.41065708  0.33210671    -0.07850
C411        C  0.15060690  0.43016907  0.34043305    -0.02400
C412        C  0.18506931  0.41709475  0.32758231     0.04420
N413        N  0.21933230  0.43588720  0.33542774     0.66930
H414        H  0.21191644  0.37332855  0.29753134     0.15830
H415        H  0.09214632  0.42116987  0.34182634     0.15540
N416        N  0.08487301  0.35917247  0.30392127     0.73560
O417        O  0.24958925  0.41924614  0.33154102    -0.38820
O418        O  0.22000629  0.46939439  0.34476720    -0.38760
O419        O  0.08314531  0.32448385  0.30197638    -0.39470
O420        O  0.05534427  0.37735531  0.30197420    -0.39530
C421        C  0.28617641  0.22401821  0.59340079    -0.11810
C422        C  0.26909232  0.20471591  0.56476893     0.05190
C423        C  0.23190996  0.19323482  0.56940067    -0.07100
C424        C  0.21310844  0.20210040  0.60198356    -0.07850
C425        C  0.23093014  0.22018987  0.63100483    -0.02400
C426        C  0.26807764  0.23132175  0.62645533     0.04420
N427        N  0.28822451  0.24999072  0.65486246     0.66930
H428        H  0.31393574  0.23440174  0.58988712     0.15830
H429        H  0.18508379  0.19244500  0.60567595     0.15540
N430        N  0.21344436  0.17081952  0.54257672     0.74630
O431        O  0.32233116  0.24442021  0.65815551    -0.38820
O432        O  0.27353527  0.27565591  0.67308537    -0.38760
O433        O  0.22973126  0.14367255  0.52823395    -0.39470
O434        O  0.17952624  0.17526683  0.53654251    -0.39530
C435        C  0.28071235  0.23895354  0.40744159    -0.11810
C436        C  0.27321101  0.20747324  0.42837809     0.05190
C437        C  0.24446725  0.18328738  0.41783718    -0.07100
C438        C  0.22333637  0.19184851  0.38692580    -0.07850
C439        C  0.23107301  0.22309644  0.36581688    -0.02400
C440        C  0.25994341  0.24721584  0.37613864     0.04420
N441        N  0.26800270  0.28029572  0.35573279     0.66930
H442        H  0.30221667  0.25773134  0.41626274     0.15830
H443        H  0.20204302  0.17287598  0.37796381     0.15540
N444        N  0.23743364  0.14938614  0.43716516     0.74630
O445        O  0.29951576  0.29496138  0.35760150    -0.38820
O446        O  0.24291199  0.29692660  0.33855204    -0.38760
O447        O  0.26361073  0.13150539  0.45121341    -0.39470
O448        O  0.20576635  0.13495244  0.43649138    -0.39530
C449        C  0.12534875  0.46465325  0.51875931    -0.11810
C450        C  0.12526038  0.49793462  0.53887756     0.05190
C451        C  0.11970379  0.53084522  0.51864851    -0.07100
C452        C  0.12301175  0.53024935  0.48022035    -0.07850
C453        C  0.12501914  0.49697808  0.45998742    -0.02400
C454        C  0.12114484  0.46385302  0.48048467     0.04420
N455        N  0.10900993  0.42996267  0.46389749     0.66930
H456        H  0.12722337  0.43842264  0.53246896     0.15830
H457        H  0.12233060  0.55663429  0.46667245     0.15540
N458        N  0.10771890  0.56437442  0.53601991     0.74630
O459        O  0.12064903  0.39939628  0.47555895    -0.38820
O460        O  0.08259809  0.43027344  0.44144767    -0.38760
O461        O  0.11791684  0.59528478  0.52374127    -0.39470
O462        O  0.08288489  0.56329686  0.56024717    -0.39530
C463        C  0.19042604  0.61526341  0.68082347    -0.11810
C464        C  0.15946097  0.62829475  0.69988964     0.05190
C465        C  0.12583393  0.60872326  0.69784040    -0.07100
C466        C  0.12446019  0.57607299  0.67733380    -0.07850
C467        C  0.15522012  0.56309657  0.65802275    -0.02400
C468        C  0.18895863  0.58259565  0.65991113     0.04420
N469        N  0.22169192  0.56982470  0.64139016     0.66930
H470        H  0.21591189  0.63079540  0.68236164     0.15830
H471        H  0.09871469  0.56098258  0.67545310     0.15540
N472        N  0.09268238  0.62188228  0.71520385     0.74630
O473        O  0.24799936  0.59180151  0.63525554    -0.38820
O474        O  0.22583353  0.53617714  0.63353279    -0.38760
O475        O  0.08583524  0.65593198  0.71680505    -0.39470
O476        O  0.06782726  0.59936127  0.72452743    -0.39530
C477        C  0.15686829  0.39907036  0.64052007    -0.11810
C478        C  0.13762792  0.42777324  0.65774367     0.05190
C479        C  0.12549571  0.42313901  0.69440990    -0.07100
C480        C  0.13446826  0.39056368  0.71315959    -0.07850
C481        C  0.15387948  0.36203643  0.69582254    -0.02400
C482        C  0.16519180  0.36639330  0.65895837     0.04420
N483        N  0.18632174  0.33862114  0.64023963     0.66930
H484        H  0.16716580  0.40280614  0.61289268     0.15830
H485        H  0.12456673  0.38661782  0.74089764     0.15540
N486        N  0.10299904  0.45034280  0.71244084     0.74630
O487        O  0.18210980  0.33345977  0.60628488    -0.38820
O488        O  0.21226699  0.32240640  0.65647924    -0.38760
O489        O  0.07934007  0.46831316  0.69460794    -0.39470
O490        O  0.10404856  0.45384107  0.74684417    -0.39530
C491        C  0.21857020  0.75751070  0.39517343    -0.11810
C492        C  0.23243910  0.77687388  0.36507542     0.05190
C493        C  0.26496544  0.79818518  0.36927895    -0.07100
C494        C  0.28366031  0.79784171  0.40282781    -0.07850
C495        C  0.27089234  0.77689604  0.43256106    -0.02400
C496        C  0.23758287  0.75677692  0.42847496     0.04420
N497        N  0.22412480  0.73290827  0.45657669     0.66930
H498        H  0.19398967  0.74076553  0.39215285     0.15830
H499        H  0.30809978  0.81475553  0.40585825     0.15540
N500        N  0.27900744  0.82094021  0.34020711     0.74630
O501        O  0.19110980  0.73554969  0.46711007    -0.38820
O502        O  0.24242457  0.70467170  0.46494087    -0.38760
O503        O  0.25757985  0.84161576  0.32248395    -0.39470
O504        O  0.31330718  0.82396971  0.33532567    -0.39530
C505        C  0.28331290  0.80048322  0.59782299    -0.11810
C506        C  0.27435142  0.77565468  0.56973741     0.05190
C507        C  0.24597467  0.74947972  0.57549237    -0.07100
C508        C  0.22602756  0.75003805  0.60830500    -0.07850
C509        C  0.23530888  0.77443100  0.63656522    -0.02400
C510        C  0.26439693  0.80009447  0.63133631     0.04420
N511        N  0.27477998  0.82621238  0.65925499     0.66930
H512        H  0.30482267  0.82076196  0.59338198     0.15830
H513        H  0.20482398  0.72945044  0.61283813     0.15540
N514        N  0.23928395  0.72022201  0.54980224     0.74630
O515        O  0.30804493  0.83579867  0.66269216    -0.38820
O516        O  0.25052043  0.84291286  0.67764836    -0.38760
O517        O  0.26608341  0.70234659  0.53680180    -0.39470
O518        O  0.20703922  0.70795675  0.54528443    -0.39530
C519        C  0.50322490  0.67379816  0.76138633    -0.11810
C520        C  0.49983267  0.65168686  0.79278934     0.05190
C521        C  0.52822432  0.65183573  0.81923361    -0.07100
C522        C  0.55979215  0.67328235  0.81260130    -0.07850
C523        C  0.56309813  0.69547040  0.78123476    -0.02400
C524        C  0.53425961  0.69604140  0.75540183     0.04420
N525        N  0.53650618  0.71744613  0.72237168     0.66930
H526        H  0.48120514  0.67388923  0.74137292     0.15830
H527        H  0.58205581  0.67308760  0.83234092     0.15540
N528        N  0.52533109  0.63144431  0.85301294     0.74630
O529        O  0.52372857  0.70460780  0.69282041    -0.38820
O530        O  0.54553203  0.75103058  0.72371510    -0.38760
O531        O  0.49442936  0.62610203  0.86799260    -0.39470
O532        O  0.55403629  0.62235722  0.87020440    -0.39530
C533        C  0.36201312  0.67913015  0.76669176    -0.11810
C534        C  0.36420204  0.65343121  0.79543597     0.05190
C535        C  0.33373718  0.64863717  0.81904124    -0.07100
C536        C  0.30141900  0.66845313  0.81212115    -0.07850
C537        C  0.29905382  0.69370183  0.78303175    -0.02400
C538        C  0.32984320  0.69928873  0.76010596     0.04420
N539        N  0.32842894  0.72343508  0.72897410     0.66930
H540        H  0.38516851  0.68245200  0.74821494     0.15830
H541        H  0.27800472  0.66480550  0.83021935     0.15540
N542        N  0.33542318  0.62498567  0.85062525     0.74630
O543        O  0.35672965  0.74134193  0.71950864    -0.38820
O544        O  0.30097546  0.72278281  0.70783236    -0.38760
O545        O  0.36451445  0.62305563  0.86939625    -0.39470
O546        O  0.30660075  0.60948576  0.86243884    -0.39530
C547        C  0.73529867  0.56905616  0.68924973    -0.11810
C548        C  0.71753611  0.56374682  0.65538048     0.05190
C549        C  0.69381385  0.59162589  0.64219190    -0.07100
C550        C  0.68953295  0.62417575  0.66251036    -0.07850
C551        C  0.70698291  0.62920588  0.69645088    -0.02400
C552        C  0.73027803  0.60128011  0.70999907     0.04420
N553        N  0.75040493  0.60572050  0.74361176     0.66930
H554        H  0.75409198  0.54826221  0.69928613     0.15830
H555        H  0.67139465  0.64544795  0.65221474     0.15540
N556        N  0.67256214  0.58687500  0.60933068     0.74630
O557        O  0.75565600  0.57830676  0.76417683    -0.38820
O558        O  0.76738757  0.63540230  0.75020853    -0.38760
O559        O  0.65470332  0.55743941  0.60401295    -0.39470
O560        O  0.66753574  0.61382161  0.58810683    -0.39530
C561        C  0.45165926  0.75193027  0.48310382    -0.11810
C562        C  0.47004560  0.78319474  0.49660879     0.05190
C563        C  0.44932021  0.81299356  0.51087227    -0.07100
C564        C  0.41069990  0.81003660  0.51212230    -0.07850
C565        C  0.39233385  0.77862416  0.49887695    -0.02400
C566        C  0.41306341  0.74899999  0.48436114     0.04420
N567        N  0.39569993  0.71540440  0.47211055     0.66930
H568        H  0.46771996  0.72902157  0.47271958     0.15830
H569        H  0.39459945  0.83286610  0.52262729     0.15540
N570        N  0.46671481  0.84662310  0.52311352     0.74630
O571        O  0.41110675  0.69556015  0.44814514    -0.38820
O572        O  0.36719049  0.70330435  0.48790649    -0.38760
O573        O  0.49606462  0.85792623  0.50828954    -0.39470
O574        O  0.45066308  0.86727392  0.54596630    -0.39530
C575        C  0.57700334  0.79955921  0.59706776    -0.11810
C576        C  0.58883572  0.77845751  0.56701258     0.05190
C577        C  0.62026071  0.75559817  0.57111148    -0.07100
C578        C  0.63916238  0.75517226  0.60456926    -0.07850
C579        C  0.62674389  0.77558894  0.63473921    -0.02400
C580        C  0.59542527  0.79846328  0.63076869     0.04420
N581        N  0.58258488  0.82163476  0.66011021     0.66930
H582        H  0.55373028  0.81792956  0.59406434     0.15830
H583        H  0.66261134  0.73702472  0.60764856     0.15540
N584        N  0.63226617  0.73109262  0.54253745     0.74630
O585        O  0.60503678  0.84128638  0.67796058    -0.38820
O586        O  0.54847947  0.82627589  0.66496080    -0.38760
O587        O  0.66622088  0.72641910  0.53675795    -0.39470
O588        O  0.60931832  0.71071811  0.52618384    -0.39530
C589        C  0.60901933  0.74137612  0.37726032    -0.11810
C590        C  0.63208559  0.77010240  0.36573234     0.05190
C591        C  0.63452889  0.80268553  0.38685147    -0.07100
C592        C  0.61461874  0.80519826  0.41973232    -0.07850
C593        C  0.59098000  0.77671358  0.43090298    -0.02400
C594        C  0.58830855  0.74417849  0.40959710     0.04420
N595        N  0.56522701  0.71372678  0.42041374     0.66930
H596        H  0.60727136  0.71647028  0.36093836     0.15830
H597        H  0.61615869  0.83026699  0.43589332     0.15540
N598        N  0.65482528  0.83421952  0.37416389     0.74630
O599        O  0.55066798  0.69329147  0.39639190    -0.38820
O600        O  0.56223042  0.70484938  0.45369946    -0.38760
O601        O  0.65145444  0.84475483  0.34142485    -0.39470
O602        O  0.67082342  0.85511842  0.39684470    -0.39530
C603        C  0.34308682  0.64735789  0.24161667    -0.11810
C604        C  0.36186755  0.65142235  0.20828259     0.05190
C605        C  0.34921039  0.67711121  0.18209723    -0.07100
C606        C  0.31819958  0.69856072  0.19046530    -0.07850
C607        C  0.29933453  0.69434558  0.22370440    -0.02400
C608        C  0.31187308  0.66859376  0.24984409     0.04420
N609        N  0.29384219  0.66413365  0.28481498     0.66930
H610        H  0.35358825  0.62819810  0.26176942     0.15830
H611        H  0.30751774  0.71746716  0.17016893     0.15540
N612        N  0.36656123  0.68089581  0.14671785     0.74630
O613        O  0.29803815  0.63483152  0.30292104    -0.38820
O614        O  0.27654348  0.69053670  0.29938314    -0.38760
O615        O  0.38226031  0.65376654  0.13167276    -0.39470
O616        O  0.36284476  0.71026729  0.12861644    -0.39530
C617        C  0.50430531  0.67103286  0.23985922    -0.11810
C618        C  0.49800975  0.65404273  0.20581808     0.05190
C619        C  0.52487120  0.65655574  0.17790011    -0.07100
C620        C  0.55800145  0.67504223  0.18546486    -0.07850
C621        C  0.56446575  0.69166704  0.21963882    -0.02400
C622        C  0.53740857  0.68957775  0.24736877     0.04420
N623        N  0.54372109  0.70411885  0.28357515     0.66930
H624        H  0.48370973  0.66850813  0.26123523     0.15830
H625        H  0.57879896  0.67722485  0.16423970     0.15540
N626        N  0.51873510  0.64155911  0.14178733     0.74630
O627        O  0.51686840  0.71351062  0.30349581    -0.38820
O628        O  0.57547223  0.70324569  0.29751167    -0.38760
O629        O  0.48673211  0.64029645  0.12838930    -0.39470
O630        O  0.54572865  0.63331583  0.12155044    -0.39530
C631        C  0.75540206  0.51135093  0.47808156    -0.11810
C632        C  0.72532577  0.49497101  0.46010593     0.05190
C633        C  0.69774245  0.47740835  0.48116808    -0.07100
C634        C  0.70113739  0.47609965  0.51940936    -0.07850
C635        C  0.73094599  0.49267178  0.53754162    -0.02400
C636        C  0.75885676  0.51017434  0.51656840     0.04420
N637        N  0.79123523  0.52562697  0.53353677     0.66930
H638        H  0.77688287  0.52416005  0.46183342     0.15830
H639        H  0.67933838  0.46345583  0.53537533     0.15540
N640        N  0.66518428  0.46254690  0.46436419     0.74630
O641        O  0.80924141  0.55077313  0.51763991    -0.38820
O642        O  0.80431024  0.51156549  0.56230056    -0.38760
O643        O  0.65039285  0.43371021  0.47699500    -0.39470
O644        O  0.64832255  0.48090648  0.44036925    -0.39530
C645        C  0.74110883  0.59066953  0.34559929    -0.11810
C646        C  0.71522464  0.56249133  0.34013894     0.05190
C647        C  0.68750004  0.56707013  0.31316962    -0.07100
C648        C  0.68686031  0.59945552  0.29214409    -0.07850
C649        C  0.71231337  0.62787156  0.29820203    -0.02400
C650        C  0.74025057  0.62315155  0.32485573     0.04420
N651        N  0.76854222  0.65046139  0.33044994     0.66930
H652        H  0.76292475  0.58682219  0.36543362     0.15830
H653        H  0.66498804  0.60343265  0.27239789     0.15540
N654        N  0.65879471  0.54014662  0.30800514     0.74630
O655        O  0.78244446  0.65500960  0.36182051    -0.38820
O656        O  0.78282897  0.66684590  0.30344229    -0.38760
O657        O  0.64398017  0.52468522  0.33526918    -0.39470
O658        O  0.64522750  0.53494500  0.27659011    -0.39530
C659        C  0.69326757  0.42400316  0.68577222    -0.11810
C660        C  0.72054517  0.42648775  0.65836803     0.05190
C661        C  0.74360303  0.39578820  0.65191090    -0.07100
C662        C  0.73740384  0.36313312  0.67143986    -0.07850
C663        C  0.70984052  0.36051426  0.69841240    -0.02400
C664        C  0.68773810  0.39155876  0.70599256     0.04420
N665        N  0.65842988  0.39023973  0.73244251     0.66930
H666        H  0.67502349  0.44710207  0.69057556     0.15830
H667        H  0.75504995  0.33963840  0.66618764     0.15540
N668        N  0.77416142  0.39755842  0.62683861     0.74630
O669        O  0.65135198  0.41825018  0.75178597    -0.38820
O670        O  0.63628779  0.36337233  0.73277742    -0.38760
O671        O  0.79485372  0.42557972  0.62627688    -0.39470
O672        O  0.78332671  0.36939563  0.60861749    -0.39530
C673        C  0.44999802  0.16878689  0.47948927    -0.11810
C674        C  0.46807464  0.19773657  0.49785379     0.05190
C675        C  0.44684339  0.22408970  0.51715453    -0.07100
C676        C  0.40833021  0.22044336  0.51794199    -0.07850
C677        C  0.39019545  0.19183734  0.49922988    -0.02400
C678        C  0.41133239  0.16522673  0.48009994     0.04420
N679        N  0.39431915  0.13408212  0.46219403     0.66930
H680        H  0.46634093  0.14824414  0.46532147     0.15830
H681        H  0.39210545  0.24123647  0.53189467     0.15540
N682        N  0.46358747  0.25559999  0.53453669     0.74630
O683        O  0.41066125  0.11781687  0.43625180    -0.38820
O684        O  0.36490588  0.12026053  0.47459572    -0.38760
O685        O  0.49025590  0.27208477  0.51949089    -0.39470
O686        O  0.44894935  0.26976224  0.56261313    -0.39530
C687        C  0.61843111  0.22994490  0.56633991    -0.11810
C688        C  0.58951421  0.20397849  0.56466328     0.05190
C689        C  0.58105546  0.18312266  0.59626759    -0.07100
C690        C  0.60021016  0.19024677  0.62885061    -0.07850
C691        C  0.62870372  0.21654227  0.63063591    -0.02400
C692        C  0.63823515  0.23636613  0.59876189     0.04420
N693        N  0.66641599  0.26425765  0.59905367     0.66930
H694        H  0.62476472  0.24658612  0.54253675     0.15830
H695        H  0.59356463  0.17411366  0.65293701     0.15540
N696        N  0.55433981  0.15376384  0.59556240     0.74630
O697        O  0.68667109  0.26877512  0.57127480    -0.38820
O698        O  0.66772669  0.28766990  0.62465681    -0.38760
O699        O  0.55295220  0.13186891  0.56865690    -0.39470
O700        O  0.53519220  0.14687971  0.62363756    -0.39530
C701        C  0.42980150  0.47256310  0.76832395    -0.11810
C702        C  0.43043167  0.45397051  0.80193563     0.05190
C703        C  0.43079207  0.47455972  0.83501799    -0.07100
C704        C  0.43037822  0.51336500  0.83314258    -0.07850
C705        C  0.42990126  0.53194526  0.79948789    -0.02400
C706        C  0.42935174  0.51132444  0.76645725     0.04420
N707        N  0.42854297  0.52884065  0.73099350     0.66930
H708        H  0.42927365  0.45650528  0.74325798     0.15830
H709        H  0.43104137  0.52944876  0.85819433     0.15540
N710        N  0.43172046  0.45699590  0.87048019     0.74630
O711        O  0.43926532  0.51151000  0.70291273    -0.38820
O712        O  0.41443047  0.56030768  0.72685578    -0.38760
O713        O  0.44510198  0.42517561  0.87440848    -0.39470
O714        O  0.42159515  0.47446302  0.89870214    -0.39530
C715        C  0.36415559  0.30108736  0.77530307    -0.11810
C716        C  0.36346605  0.33179421  0.79901319     0.05190
C717        C  0.33004588  0.34081145  0.81669378    -0.07100
C718        C  0.29795775  0.32131557  0.80726274    -0.07850
C719        C  0.29853776  0.29119761  0.78273568    -0.02400
C720        C  0.33279117  0.27959915  0.76833269     0.04420
N721        N  0.33680689  0.24677834  0.74651075     0.66930
H722        H  0.38956744  0.29351326  0.76180198     0.15830
H723        H  0.27219347  0.32915381  0.82008183     0.15540
N724        N  0.32832024  0.36841241  0.84504975     0.74630
O725        O  0.36084558  0.24601467  0.72150512    -0.38820
O726        O  0.32476852  0.21646684  0.75851259    -0.38760
O727        O  0.29908404  0.38647521  0.85017803    -0.39470
O728        O  0.35407687  0.37136600  0.86806521    -0.39530
C729        C  0.53072493  0.34419043  0.81061530    -0.11810
C730        C  0.49926576  0.33473423  0.79059340     0.05190
C731        C  0.50078141  0.30452090  0.76579132    -0.07100
C732        C  0.53346272  0.28423294  0.76237000    -0.07850
C733        C  0.56506918  0.29419502  0.78192918    -0.02400
C734        C  0.56347278  0.32427578  0.80684176     0.04420
N735        N  0.59438662  0.33432308  0.82935243     0.66930
H736        H  0.52947035  0.36658676  0.83028690     0.15830
H737        H  0.53481793  0.26182937  0.74271851     0.15540
N738        N  0.47021130  0.29523830  0.74252926     0.74630
O739        O  0.60103584  0.36784958  0.83607775    -0.38820
O740        O  0.61207672  0.30984487  0.84635893    -0.38760
O741        O  0.45273924  0.32026139  0.72608914    -0.39470
O742        O  0.46343881  0.26193621  0.73488772    -0.39530
C743        C  0.74172524  0.41701540  0.31384722    -0.11810
C744        C  0.71603545  0.42547796  0.34138207     0.05190
C745        C  0.68708509  0.40050650  0.34887275    -0.07100
C746        C  0.68548528  0.36699718  0.32978742    -0.07850
C747        C  0.71114078  0.35850812  0.30235206    -0.02400
C748        C  0.73985508  0.38363673  0.29431553     0.04420
N749        N  0.76817171  0.37506339  0.26801565     0.66930
H750        H  0.76404289  0.43612284  0.30835643     0.15830
H751        H  0.66326041  0.34782880  0.33549633     0.15540
N752        N  0.65809912  0.40958599  0.37413632     0.74630
O753        O  0.78406677  0.40061808  0.25062881    -0.38820
O754        O  0.78074819  0.34274449  0.26559078    -0.38760
O755        O  0.64356362  0.44113871  0.37330631    -0.39470
O756        O  0.64319698  0.38465140  0.39318697    -0.39530
C757        C  0.63577614  0.23583255  0.39167831    -0.11810
C758        C  0.62836035  0.21163986  0.36264068     0.05190
C759        C  0.60048688  0.18451393  0.36671299    -0.07100
C760        C  0.58018712  0.18300372  0.39941193    -0.07850
C761        C  0.58728335  0.20745208  0.42835368    -0.02400
C762        C  0.61518854  0.23459649  0.42423166     0.04420
N763        N  0.62187207  0.26207577  0.45195447     0.66930
H764        H  0.65649631  0.25711318  0.38824427     0.15830
H765        H  0.55951683  0.16167465  0.40282643     0.15540
N766        N  0.59341006  0.15744523  0.33868014     0.74630
O767        O  0.65402262  0.27436450  0.45703150    -0.38820
O768        O  0.59527966  0.27720728  0.46840872    -0.38760
O769        O  0.61979504  0.14242642  0.32180009    -0.39470
O770        O  0.56124549  0.14498407  0.33410918    -0.39530
C771        C  0.44544452  0.47365398  0.16949430    -0.11810
C772        C  0.43545938  0.45587916  0.20215492     0.05190
C773        C  0.42408090  0.47709008  0.23260331    -0.07100
C774        C  0.42188007  0.51549969  0.22928830    -0.07850
C775        C  0.43176209  0.53342006  0.19674466    -0.02400
C776        C  0.44365907  0.51234200  0.16619915     0.04420
N777        N  0.45298783  0.52933513  0.13169819     0.66930
H778        H  0.45372720  0.45708603  0.14616787     0.15830
H779        H  0.41358075  0.53181788  0.25279401     0.15540
N780        N  0.41587379  0.46025278  0.26731959     0.74630
O781        O  0.47318654  0.51257782  0.10895886    -0.38820
O782        O  0.43848619  0.55942987  0.12223983    -0.38760
O783        O  0.43535460  0.43403625  0.27901291    -0.39470
O784        O  0.39230699  0.47454197  0.28843944    -0.39530
C785        C  0.30386248  0.33160651  0.24169964    -0.11810
C786        C  0.29796674  0.29869393  0.22237306     0.05190
C787        C  0.32581799  0.28504662  0.19896592    -0.07100
C788        C  0.35900901  0.30470113  0.19575079    -0.07850
C789        C  0.36502147  0.33770601  0.21517746    -0.02400
C790        C  0.33719331  0.35085724  0.23901551     0.04420
N791        N  0.34292200  0.38242564  0.26212992     0.66930
H792        H  0.28269751  0.34178384  0.26008287     0.15830
H793        H  0.37986790  0.29476718  0.17693268     0.15540
N794        N  0.32021372  0.25271727  0.17678922     0.74630
O795        O  0.31703505  0.40492821  0.26768385    -0.38820
O796        O  0.37175981  0.38486721  0.28121603    -0.38760
O797        O  0.29048928  0.24842783  0.15941349    -0.39470
O798        O  0.34675531  0.23126395  0.17025673    -0.39530
C799        C  0.53176287  0.34376060  0.19074226    -0.11810
C800        C  0.50264479  0.33591213  0.21481436     0.05190
C801        C  0.50699166  0.30734550  0.24098614    -0.07100
C802        C  0.53973039  0.28683318  0.24143091    -0.07850
C803        C  0.56894558  0.29529437  0.21779885    -0.02400
C804        C  0.56482185  0.32399672  0.19193016     0.04420
N805        N  0.59344568  0.33286239  0.16609695     0.66930
H806        H  0.52842313  0.36490152  0.17010224     0.15830
H807        H  0.54331950  0.26560034  0.26194736     0.15540
N808        N  0.47960899  0.30015865  0.26858559     0.74630
O809        O  0.61087304  0.30752519  0.14990417    -0.38820
O810        O  0.59852337  0.36586103  0.15633158    -0.38760
O811        O  0.47409646  0.26763975  0.27961367    -0.39470
O812        O  0.46413829  0.32653084  0.28512645    -0.39530
C813        C  0.12732789  0.88724192  0.24589363    -0.11810
C814        C  0.13398546  0.86495788  0.27639403     0.05190
C815        C  0.11854572  0.87427182  0.31074930    -0.07100
C816        C  0.09573340  0.90522642  0.31347416    -0.07850
C817        C  0.08868428  0.92732465  0.28295471    -0.02400
C818        C  0.10470056  0.91849539  0.24863186     0.04420
N819        N  0.09775521  0.94028419  0.21639422     0.66930
H820        H  0.13853022  0.87926761  0.21951212     0.15830
H821        H  0.08437721  0.91296370  0.33986712     0.15540
N822        N  0.12643501  0.85312955  0.34310993     0.74630
O823        O  0.12035970  0.94003635  0.19008124    -0.38820
O824        O  0.06766677  0.95717451  0.21254661    -0.38760
O825        O  0.15816159  0.83994204  0.34801739    -0.39470
O826        O  0.10333214  0.85158887  0.36894530    -0.39530
C827        C  0.11618345  0.06731644  0.26040048    -0.11810
C828        C  0.09178785  0.06345439  0.29014792     0.05190
C829        C  0.08758853  0.09297210  0.31514599    -0.07100
C830        C  0.10638946  0.12611697  0.30851282    -0.07850
C831        C  0.13028176  0.13009643  0.27846958    -0.02400
C832        C  0.13550046  0.10023540  0.25420037     0.04420
N833        N  0.15838004  0.10337600  0.22216885     0.66930
H834        H  0.11903610  0.04496083  0.24085424     0.15830
H835        H  0.10312123  0.14886458  0.32755191     0.15540
N836        N  0.06560936  0.08945789  0.34782534     0.74630
O837        O  0.17588264  0.07568348  0.21052231    -0.38820
O838        O  0.15704609  0.13194673  0.20256588    -0.38760
O839        O  0.06536654  0.05964759  0.36560938    -0.39470
O840        O  0.05007613  0.11740471  0.36149235    -0.39530
C841        C  0.75264431  0.91150498  0.68092441    -0.11810
C842        C  0.77132904  0.92779497  0.71034813     0.05190
C843        C  0.76924701  0.91170606  0.74559904    -0.07100
C844        C  0.74928186  0.87875073  0.74996397    -0.07850
C845        C  0.73107590  0.86220572  0.72036874    -0.02400
C846        C  0.73289343  0.87856697  0.68532020     0.04420
N847        N  0.71600904  0.86170534  0.65381538     0.66930
H848        H  0.75443535  0.92403750  0.65404998     0.15830
H849        H  0.74776067  0.86585248  0.77665935     0.15540
N850        N  0.78670308  0.92832984  0.77705489     0.74630
O851        O  0.70304349  0.88157773  0.62862238    -0.38820
O852        O  0.71887905  0.82746352  0.64843107    -0.38760
O853        O  0.79041255  0.96286695  0.77940353    -0.39470
O854        O  0.79509636  0.90880860  0.80436776    -0.39530
C855        C  0.77111416  0.07777177  0.73722852    -0.11810
C856        C  0.77250515  0.06319120  0.70168256     0.05190
C857        C  0.75307643  0.08062446  0.67298520    -0.07100
C858        C  0.73205127  0.11204019  0.68137508    -0.07850
C859        C  0.73058708  0.12656433  0.71699921    -0.02400
C860        C  0.75097313  0.10973168  0.74548294     0.04420
N861        N  0.75212813  0.12436262  0.78243465     0.66930
H862        H  0.78620741  0.06388379  0.75872178     0.15830
H863        H  0.71726673  0.12602702  0.65972665     0.15540
N864        N  0.75506319  0.06797837  0.63543904     0.74630
O865        O  0.77054276  0.10813250  0.80685136    -0.38820
O866        O  0.73538479  0.15354325  0.79114034    -0.38760
O867        O  0.76533762  0.03570181  0.62758028    -0.39470
O868        O  0.74610864  0.08924859  0.60962668    -0.39530
C869        C  0.94975422  0.98637163  0.72607083    -0.11810
C870        C  0.96889591  0.99048571  0.69294150     0.05190
C871        C  0.94900448  0.99637100  0.66010622    -0.07100
C872        C  0.91023237  0.99835967  0.66180737    -0.07850
C873        C  0.89121503  0.99429010  0.69508307    -0.02400
C874        C  0.91122710  0.98853251  0.72773189     0.04420
N875        N  0.89312068  0.98563843  0.76276603     0.66930
H876        H  0.96522184  0.98253108  0.75113589     0.15830
H877        H  0.89454646  0.00230945  0.63691022     0.15540
N878        N  0.96725587  0.99968257  0.62509592     0.74630
O879        O  0.90772704  0.96737315  0.78826952    -0.38820
O880        O  0.86483706  0.00455604  0.76977078    -0.38760
O881        O  0.99871727  0.98591241  0.61986808    -0.39470
O882        O  0.95064194  0.01375391  0.59820417    -0.39530
C883        C  0.10276074  0.90648699  0.68435138    -0.11810
C884        C  0.08688583  0.92376853  0.71480556     0.05190
C885        C  0.09409247  0.91038033  0.75047676    -0.07100
C886        C  0.11714532  0.87956072  0.75442268    -0.07850
C887        C  0.13283200  0.86216929  0.72386813    -0.02400
C888        C  0.12574791  0.87580021  0.68832110     0.04420
N889        N  0.14141376  0.85890358  0.65612872     0.66930
H890        H  0.09773172  0.91758244  0.65727731     0.15830
H891        H  0.12188088  0.86813266  0.78140395     0.15540
N892        N  0.07819842  0.92720467  0.78267636     0.74630
O893        O  0.12546759  0.86172767  0.62556174    -0.38820
O894        O  0.17299232  0.84457011  0.65719268    -0.38760
O895        O  0.04794006  0.94415189  0.78103388    -0.39470
O896        O  0.09288893  0.92255863  0.81363843    -0.39530
C897        C  0.12232250  0.06454519  0.69403138    -0.11810
C898        C  0.08697682  0.06037239  0.70943465     0.05190
C899        C  0.07184304  0.08982378  0.72982913    -0.07100
C900        C  0.09156340  0.12286232  0.73287348    -0.07850
C901        C  0.12699200  0.12703575  0.71796803    -0.02400
C902        C  0.14254519  0.09744907  0.69799553     0.04420
N903        N  0.17765037  0.10078485  0.68001611     0.66930
H904        H  0.13389194  0.04231420  0.67785393     0.15830
H905        H  0.07945274  0.14519603  0.74820719     0.15540
N906        N  0.03751774  0.08619474  0.74918298     0.74630
O907        O  0.19862821  0.07317825  0.67767326    -0.38820
O908        O  0.18543213  0.12940146  0.66194302    -0.38760
O909        O  0.03129140  0.05810869  0.76861803    -0.39470
O910        O  0.01541256  0.11295626  0.75061944    -0.39530
C911        C  0.91079188  0.99798993  0.26892248    -0.11810
C912        C  0.89319688  0.99375435  0.30286530     0.05190
C913        C  0.91462860  0.99079252  0.33522128    -0.07100
C914        C  0.95333677  0.99236252  0.33207016    -0.07850
C915        C  0.97081761  0.99663382  0.29802490    -0.02400
C916        C  0.94930714  0.99948861  0.26587878     0.04420
N917        N  0.96571237  0.00323289  0.23003641     0.66930
H918        H  0.89410691  0.00037830  0.24445761     0.15830
H919        H  0.97027446  0.98979825  0.35633018     0.15540
N920        N  0.89820803  0.98639035  0.37111509     0.74630
O921        O  0.94832862  0.99267724  0.20196525    -0.38820
O922        O  0.99602289  0.01975998  0.22573830    -0.38760
O923        O  0.86455078  0.97856348  0.37495277    -0.39470
O924        O  0.91782370  0.98916405  0.39952514    -0.39530
C925        C  0.77217658  0.91041773  0.25553937    -0.11810
C926        C  0.77459833  0.92415963  0.29139255     0.05190
C927        C  0.75500698  0.90663358  0.32009349    -0.07100
C928        C  0.73362676  0.87546676  0.31159474    -0.07850
C929        C  0.73062943  0.86215010  0.27565332    -0.02400
C930        C  0.75040580  0.87952159  0.24713763     0.04420
N931        N  0.74911974  0.86613874  0.20992429     0.66930
H932        H  0.78692900  0.92446528  0.23381042     0.15830
H933        H  0.71986419  0.86071737  0.33340374     0.15540
N934        N  0.75704791  0.91900463  0.35774893     0.74630
O935        O  0.77465682  0.87404392  0.18775755    -0.38820
O936        O  0.72124577  0.84902042  0.19811306    -0.38760
O937        O  0.76652837  0.95152399  0.36578268    -0.39470
O938        O  0.74775506  0.89761921  0.38341741    -0.39530
C939        C  0.75221412  0.06327401  0.26008438    -0.11810
C940        C  0.77275887  0.05980166  0.29240997     0.05190
C941        C  0.77216604  0.08844922  0.31863057    -0.07100
C942        C  0.75228407  0.12056791  0.31074550    -0.07850
C943        C  0.73189747  0.12425989  0.27822557    -0.02400
C944        C  0.73131765  0.09484210  0.25264032     0.04420
N945        N  0.71159809  0.09668304  0.21847175     0.66930
H946        H  0.75260087  0.04094341  0.24029951     0.15830
H947        H  0.75216406  0.14291870  0.33052048     0.15540
N948        N  0.79045319  0.08513891  0.35349216     0.74630
O949        O  0.72305747  0.07863549  0.19114073    -0.38820
O950        O  0.67975167  0.11034230  0.21711753    -0.38760
O951        O  0.79273666  0.05426828  0.36921727    -0.39470
O952        O  0.80043260  0.11367027  0.37074652    -0.39530
C953        C  0.85878197  0.24892994  0.17348567    -0.11810
C954        C  0.86459169  0.28338003  0.15685680     0.05190
C955        C  0.83955424  0.31241052  0.16368456    -0.07100
C956        C  0.80882109  0.30556070  0.18597393    -0.07850
C957        C  0.80268680  0.27100234  0.20211354    -0.02400
C958        C  0.82823611  0.24228330  0.19624487     0.04420
N959        N  0.82323826  0.20621458  0.21192763     0.66930
H960        H  0.87860009  0.22709473  0.16891379     0.15830
H961        H  0.78878018  0.32729475  0.19009131     0.15540
N962        N  0.84497891  0.34898836  0.14930270     0.74630
O963        O  0.83582909  0.17813574  0.19573506    -0.38820
O964        O  0.81044403  0.20260719  0.24386629    -0.38760
O965        O  0.85719553  0.35378228  0.11731668    -0.39470
O966        O  0.83346514  0.37661263  0.16700838    -0.39530
C967        C  0.01588557  0.24998521  0.15790849    -0.11810
C968        C  0.00061218  0.28539634  0.15600057     0.05190
C969        C  0.01727984  0.31504671  0.17528410    -0.07100
C970        C  0.04918236  0.30778579  0.19580475    -0.07850
C971        C  0.06462798  0.27244788  0.19738153    -0.02400
C972        C  0.04785347  0.24277434  0.17830501     0.04420
N973        N  0.06224901  0.20555473  0.17919327     0.66930
H974        H  0.00235837  0.22770485  0.14332394     0.15830
H975        H  0.06286582  0.33010107  0.21020861     0.15540
N976        N  0.00320087  0.35237895  0.17403889     0.74630
O977        O  0.04553019  0.17980270  0.16278766    -0.38820
O978        O  0.09104198  0.19769253  0.19678579    -0.38760
O979        O  0.97535280  0.36061107  0.15516152    -0.39470
O980        O  0.01943666  0.37791279  0.19124593    -0.39530
C981        C  0.86088323  0.72906320  0.80925430    -0.11810
C982        C  0.86268532  0.70317306  0.83790682     0.05190
C983        C  0.83133129  0.68133274  0.84570673    -0.07100
C984        C  0.79869228  0.68762871  0.82622755    -0.07850
C985        C  0.79691931  0.71370460  0.79781648    -0.02400
C986        C  0.82884702  0.73379062  0.78852323     0.04420
N987        N  0.82904440  0.75996000  0.75916831     0.66930
H988        H  0.88460119  0.74610358  0.80296768     0.15830
H989        H  0.77452393  0.67129487  0.83272682     0.15540
N990        N  0.83231920  0.65206709  0.87222870     0.74630
O991        O  0.84077860  0.79225617  0.76484000    -0.38820
O992        O  0.82554944  0.74878063  0.72659075    -0.38760
O993        O  0.80383381  0.64406326  0.89045504    -0.39470
O994        O  0.86003368  0.63124399  0.87427161    -0.39530
C995        C  0.04360372  0.74673366  0.80706482    -0.11810
C996        C  0.06465848  0.71523327  0.79994222     0.05190
C997        C  0.05252051  0.68036480  0.81281537    -0.07100
C998        C  0.01935539  0.67836938  0.83244541    -0.07850
C999        C  0.99865632  0.70992254  0.84012561    -0.02400
C1000       C  0.01063738  0.74482031  0.82721046     0.04420
N1001       N  0.99077758  0.77849343  0.83487977     0.66930
H1002       H  0.05351649  0.77320277  0.79741364     0.15830
H1003       H  0.00967406  0.65192026  0.84239490     0.15540
N1004       N  0.07267901  0.64675208  0.80603174     0.74630
O1005       O  0.00683577  0.80928932  0.83212458    -0.38820
O1006       O  0.95695264  0.77814450  0.84280440    -0.38760
O1007       O  0.10733774  0.64671675  0.80393374    -0.39470
O1008       O  0.05596677  0.61617643  0.80562137    -0.39530
C1009       C  0.24790406  0.15862318  0.90477334    -0.11810
C1010       C  0.21825502  0.15590013  0.92913195     0.05190
C1011       C  0.18443523  0.17316340  0.92066477    -0.07100
C1012       C  0.18128290  0.19302769  0.88794227    -0.07850
C1013       C  0.21050738  0.19472463  0.86303081    -0.02400
C1014       C  0.24442368  0.17752855  0.87151706     0.04420
N1015       N  0.27580137  0.17973434  0.84748224     0.66930
H1016       H  0.27382533  0.14559285  0.91158424     0.15830
H1017       H  0.15524448  0.20572179  0.88095057     0.15540
N1018       N  0.15271336  0.16949802  0.94403660     0.74630
O1019       O  0.30763805  0.18378505  0.86075095    -0.38820
O1020       O  0.27267410  0.17229554  0.81385881    -0.38760
O1021       O  0.12914112  0.19497994  0.94557283    -0.39470
O1022       O  0.14567736  0.13915169  0.95943716    -0.39530
C1023       C  0.19535299  0.20925827  0.10275790    -0.11810
C1024       C  0.21348519  0.19579905  0.13372038     0.05190
C1025       C  0.23556253  0.16375870  0.13039636    -0.07100
C1026       C  0.23798885  0.14569675  0.09652363    -0.07850
C1027       C  0.21853415  0.15812703  0.06574631    -0.02400
C1028       C  0.19680122  0.19046176  0.06923184     0.04420
N1029       N  0.17371819  0.20315233  0.04013533     0.66930
H1030       H  0.17785749  0.23330949  0.10519292     0.15830
H1031       H  0.25586158  0.12194069  0.09418995     0.15540
N1032       N  0.25618870  0.14937988  0.16073816     0.74630
O1033       O  0.14976227  0.18183859  0.02671710    -0.38820
O1034       O  0.17310749  0.23696843  0.03204495    -0.38760
O1035       O  0.25850062  0.11497570  0.16536259    -0.39470
O1036       O  0.27599732  0.17051550  0.17994721    -0.39530
C1037       C  0.66728128  0.84891458  0.90677894    -0.11810
C1038       C  0.63863966  0.83800271  0.93022926     0.05190
C1039       C  0.61799275  0.80586248  0.92174561    -0.07100
C1040       C  0.62729790  0.78513637  0.89048570    -0.07850
C1041       C  0.65567423  0.79638354  0.86692948    -0.02400
C1042       C  0.67615908  0.82855942  0.87526503     0.04420
N1043       N  0.70648499  0.84041759  0.85262407     0.66930
H1044       H  0.68375999  0.87284563  0.91382962     0.15830
H1045       H  0.61082290  0.76125937  0.88321459     0.15540
N1046       N  0.58666879  0.79486075  0.94342541     0.74630
O1047       O  0.71550646  0.87404506  0.85154206    -0.38820
O1048       O  0.72668079  0.81707980  0.83664040    -0.38760
O1049       O  0.56620199  0.81880258  0.95811910    -0.39470
O1050       O  0.57690220  0.76144068  0.94447447    -0.39530
C1051       C  0.61817777  0.84268624  0.09591171    -0.11810
C1052       C  0.64232307  0.83626850  0.06661933     0.05190
C1053       C  0.67000417  0.80894569  0.07031751    -0.07100
C1054       C  0.67224324  0.78853003  0.10290726    -0.07850
C1055       C  0.64852354  0.79557355  0.13237783    -0.02400
C1056       C  0.62070629  0.82264754  0.12858012     0.04420
N1057       N  0.59407089  0.82934502  0.15703478     0.66930
H1058       H  0.59635936  0.86277736  0.09291607     0.15830
H1059       H  0.69401884  0.76841586  0.10604242     0.15540
N1060       N  0.69717148  0.80283628  0.04225890     0.74630
O1061       O  0.58189654  0.86149662  0.16234560    -0.38820
O1062       O  0.57918206  0.80268075  0.17363456    -0.38760
O1063       O  0.71202807  0.82980300  0.02611814    -0.39470
O1064       O  0.70954577  0.77081939  0.03662628    -0.39530
C1065       C  0.94786059  0.26378365  0.01804327    -0.11810
C1066       C  0.93248392  0.29361767  0.03715685     0.05190
C1067       C  0.91620650  0.32280365  0.01725923    -0.07100
C1068       C  0.91489115  0.32067361  0.97875397    -0.07850
C1069       C  0.93026237  0.29077005  0.95967974    -0.02400
C1070       C  0.94673689  0.26174061  0.97960796     0.04420
N1071       N  0.96132902  0.22958075  0.96152529     0.66930
H1072       H  0.95980816  0.24125681  0.03338278     0.15830
H1073       H  0.90296917  0.34317060  0.96334638     0.15540
N1074       N  0.90240268  0.35527781  0.03539909     0.74630
O1075       O  0.98717818  0.21159081  0.97602184    -0.38820
O1076       O  0.94590177  0.21664551  0.93329924    -0.38760
O1077       O  0.91824360  0.36776545  0.06359556    -0.39470
O1078       O  0.87728410  0.37417056  0.02076422    -0.39530
C1079       C  0.86126281  0.25666051  0.81231864    -0.11810
C1080       C  0.86283221  0.28430052  0.83945044     0.05190
C1081       C  0.83143768  0.30626551  0.84602076    -0.07100
C1082       C  0.79900819  0.29876878  0.82658229    -0.07850
C1083       C  0.79731177  0.27088522  0.79977097    -0.02400
C1084       C  0.82899678  0.24968558  0.79231817     0.04420
N1085       N  0.82860542  0.21997824  0.76616356     0.66930
H1086       H  0.88508402  0.23935986  0.80755852     0.15830
H1087       H  0.77498420  0.31571898  0.83165354     0.15540
N1088       N  0.83228522  0.33701095  0.87103087     0.74630
O1089       O  0.85727280  0.21250605  0.74802996    -0.38820
O1090       O  0.80163136  0.19802898  0.76479179    -0.38760
O1091       O  0.86015311  0.35784519  0.87248368    -0.39470
O1092       O  0.80356717  0.34616747  0.88830009    -0.39530
C1093       C  0.05940354  0.30804767  0.82124106    -0.11810
C1094       C  0.06504964  0.27509335  0.80175247     0.05190
C1095       C  0.03772092  0.24750497  0.80224209    -0.07100
C1096       C  0.00478612  0.25397428  0.82113402    -0.07850
C1097       C  0.99907920  0.28683598  0.84069390    -0.02400
C1098       C  0.02658392  0.31450552  0.84064186     0.04420
N1099       N  0.02147902  0.34929902  0.85912493     0.66930
H1100       H  0.08056455  0.32917008  0.82071552     0.15830
H1101       H  0.98399203  0.23249046  0.82201532     0.15540
N1102       N  0.04429171  0.21182630  0.78656233     0.74630
O1103       O  0.04903895  0.36778090  0.86961929    -0.38820
O1104       O  0.98989302  0.36351228  0.86176467    -0.38760
O1105       O  0.07463849  0.19597143  0.79217010    -0.39470
O1106       O  0.01807026  0.19367612  0.77268872    -0.39530
C1107       C  0.90756330  0.72373716  0.01807347    -0.11810
C1108       C  0.93027217  0.69869344  0.03661570     0.05190
C1109       C  0.95260977  0.67430343  0.01596993    -0.07100
C1110       C  0.95234407  0.67658073  0.97747303    -0.07850
C1111       C  0.92993057  0.70198863  0.95895602    -0.02400
C1112       C  0.90733387  0.72601917  0.97968792     0.04420
N1113       N  0.88538462  0.75402497  0.96253736     0.66930
H1114       H  0.89098328  0.74293272  0.03376580     0.15830
H1115       H  0.96903321  0.65757781  0.96166676     0.15540
N1116       N  0.97462183  0.64639633  0.03334072     0.74630
O1117       O  0.85474953  0.76304513  0.97622738    -0.38820
O1118       O  0.89835222  0.77283578  0.93645710    -0.38760
O1119       O  0.96302727  0.63002415  0.06159397    -0.39470
O1120       O  0.00375797  0.63507146  0.01817387    -0.39530
C1121       C  0.84333515  0.73881042  0.15005545    -0.11810
C1122       C  0.86403548  0.70691488  0.15641020     0.05190
C1123       C  0.85197193  0.68094255  0.18292000    -0.07100
C1124       C  0.81931123  0.68844220  0.20236817    -0.07850
C1125       C  0.79835757  0.72007642  0.19544185    -0.02400
C1126       C  0.81043105  0.74580281  0.16887811     0.04420
N1127       N  0.79078121  0.77947608  0.16123264     0.66930
H1128       H  0.85305335  0.75851327  0.12993089     0.15830
H1129       H  0.80919783  0.66879572  0.22234135     0.15540
N1130       N  0.87115882  0.64666817  0.18970992     0.74630
O1131       O  0.80789483  0.80712878  0.14884865    -0.38820
O1132       O  0.75617468  0.78105099  0.16361442    -0.38760
O1133       O  0.89759258  0.63633500  0.16973690    -0.39470
O1134       O  0.85995074  0.62503887  0.21441914    -0.39530
C1135       C  0.03819882  0.74363912  0.20187121    -0.11810
C1136       C  0.06677344  0.71863073  0.19510401     0.05190
C1137       C  0.06218172  0.69119826  0.16767763    -0.07100
C1138       C  0.02929342  0.68984414  0.14770642    -0.07850
C1139       C  0.00078654  0.71494437  0.15423489    -0.02400
C1140       C  0.00555028  0.74274343  0.18123704     0.04420
N1141       N  0.97853800  0.77120108  0.18681102     0.66930
H1142       H  0.04219464  0.76528954  0.22199904     0.15830
H1143       H  0.02539705  0.66812990  0.12761658     0.15540
N1144       N  0.08999749  0.66392008  0.16029847     0.74630
O1145       O  0.97486871  0.78603453  0.21792328    -0.38820
O1146       O  0.96149035  0.78468877  0.15989711    -0.38760
O1147       O  0.10753704  0.64920845  0.18621412    -0.39470
O1148       O  0.09383698  0.65109653  0.12833577    -0.39530
C1149       C  0.65800456  0.01715477  0.00613059    -0.11810
C1150       C  0.62402017  0.03473493  0.00132713     0.05190
C1151       C  0.59196097  0.01311887  0.99565832    -0.07100
C1152       C  0.59517119  0.97432887  0.99539543    -0.07850
C1153       C  0.62921407  0.95678560  0.00065239    -0.02400
C1154       C  0.66131152  0.97855122  0.00563667     0.04420
N1155       N  0.69752634  0.96253177  0.00876355     0.66930
H1156       H  0.68243283  0.03394779  0.00997489     0.15830
H1157       H  0.57082719  0.95746066  0.99140901     0.15540
N1158       N  0.55623195  0.02965323  0.99051795     0.74630
O1159       O  0.72556433  0.98087961  0.99933773    -0.38820
O1160       O  0.70219218  0.93124613  0.02300327    -0.38760
O1161       O  0.54921269  0.06137583  0.00295320    -0.39470
O1162       O  0.53055320  0.01144812  0.97570678    -0.39530
C1163       C  0.64949654  0.13298210  0.90038514    -0.11810
C1164       C  0.63322307  0.15223978  0.92954208     0.05190
C1165       C  0.62379184  0.18985526  0.92416759    -0.07100
C1166       C  0.63354615  0.20744631  0.89119918    -0.07850
C1167       C  0.64947616  0.18787347  0.86198680    -0.02400
C1168       C  0.65606562  0.14957798  0.86649088     0.04420
N1169       N  0.66910764  0.12658217  0.83725070     0.66930
H1170       H  0.65726659  0.10439048  0.90364217     0.15830
H1171       H  0.62654049  0.23622375  0.88753782     0.15540
N1172       N  0.60252154  0.20999398  0.95070202     0.74630
O1173       O  0.69652616  0.10607485  0.84286787    -0.38820
O1174       O  0.64736103  0.11824530  0.81157563    -0.38760
O1175       O  0.60794939  0.24408820  0.95533282    -0.39470
O1176       O  0.57510823  0.19497073  0.96590992    -0.39530
C1177       C  0.67459251  0.14528120  0.08724976    -0.11810
C1178       C  0.64390364  0.15478212  0.06608570     0.05190
C1179       C  0.62218223  0.18543736  0.07638803    -0.07100
C1180       C  0.63146884  0.20537786  0.10800923    -0.07850
C1181       C  0.66127986  0.19498147  0.12993392    -0.02400
C1182       C  0.68401011  0.16519912  0.11899621     0.04420
N1183       N  0.71699741  0.15547900  0.13882938     0.66930
H1184       H  0.69171243  0.12252683  0.07835208     0.15830
H1185       H  0.61387100  0.22780127  0.11689021     0.15540
N1186       N  0.58966351  0.19548482  0.05632964     0.74630
O1187       O  0.73404424  0.12619830  0.13100759    -0.38820
O1188       O  0.73185279  0.17792502  0.16081572    -0.38760
O1189       O  0.56828410  0.17089610  0.04407545    -0.39470
O1190       O  0.57984334  0.22880967  0.05473863    -0.39530
C1191       C  0.25202517  0.97861060  0.01812355    -0.11810
C1192       C  0.22330415  0.95955834  0.00056742     0.05190
C1193       C  0.19602786  0.97976835  0.98167387    -0.07100
C1194       C  0.19868287  0.01835888  0.98025312    -0.07850
C1195       C  0.22729087  0.03745421  0.99784713    -0.02400
C1196       C  0.25467673  0.01731777  0.01675334     0.04420
N1197       N  0.28581907  0.03537361  0.03348711     0.66930
H1198       H  0.27321971  0.96301382  0.03200699     0.15830
H1199       H  0.17736369  0.03385581  0.96644578     0.15540
N1200       N  0.16477372  0.96185341  0.96511046     0.74630
O1201       O  0.30215701  0.02051832  0.06012288    -0.38820
O1202       O  0.29968932  0.06392552  0.01928259    -0.38760
O1203       O  0.14941512  0.93482204  0.98067653    -0.39470
O1204       O  0.14976419  0.97566991  0.93717994    -0.39530
C1205       C  0.19066681  0.81137552  0.93149191    -0.11810
C1206       C  0.21882818  0.83798043  0.93421895     0.05190
C1207       C  0.24280813  0.84361336  0.90428040    -0.07100
C1208       C  0.23689914  0.82364602  0.87195354    -0.07850
C1209       C  0.20843524  0.79742832  0.86900937    -0.02400
C1210       C  0.18508948  0.79103689  0.89926458     0.04420
N1211       N  0.15458371  0.76578255  0.89729144     0.66930
H1212       H  0.17189828  0.80739796  0.95426558     0.15830
H1213       H  0.25541327  0.82792191  0.84902278     0.15540
N1214       N  0.27386221  0.86827218  0.90653120     0.74630
O1215       O  0.14530707  0.74744852  0.92519041    -0.38820
O1216       O  0.13363511  0.76577676  0.86974308    -0.38760
O1217       O  0.29287256  0.87001546  0.93540793    -0.39470
O1218       O  0.28507760  0.88493927  0.87829496    -0.39530
C1219       C  0.18646338  0.79291731  0.10621239    -0.11810
C1220       C  0.21442618  0.79576209  0.13236289     0.05190
C1221       C  0.24426079  0.82031331  0.12658349    -0.07100
C1222       C  0.24458708  0.84243381  0.09518943    -0.07850
C1223       C  0.21629844  0.84012357  0.06933824    -0.02400
C1224       C  0.18668930  0.81519477  0.07487723     0.04420
N1225       N  0.15612254  0.81318906  0.04984675     0.66930
H1226       H  0.16321354  0.77484521  0.11135210     0.15830
H1227       H  0.26770800  0.86070519  0.09017203     0.15540
N1228       N  0.27471987  0.82241369  0.15174219     0.74630
O1229       O  0.13836317  0.78344587  0.04612023    -0.38820
O1230       O  0.14431388  0.84190389  0.03436571    -0.38760
O1231       O  0.28598993  0.79383177  0.16783007    -0.39470
O1232       O  0.29315577  0.85183372  0.15469385    -0.39530
loop_ 
_geom_bond_atom_site_label_1 
_geom_bond_atom_site_label_2 
_geom_bond_distance 
_geom_bond_site_symmetry_2 
_ccdc_geom_bond_type 
C1            C2   1.396   1_556  A
C1            C6   1.406       .  A
C1         C1206   1.480       .  S
C2            C3   1.395       .  A
C2            H7   1.085       .  S
C3            C4   1.404       .  A
C3         C1223   1.474       .  S
C4            C5   1.406       .  A
C4            H8   1.084       .  S
C5            C6   1.408   1_554  A
C5         C1192   1.486       .  S
C6            H9   1.084       .  S
C10          C11   1.400   1_554  A
C10          C15   1.403       .  A
C10        C1178   1.480       .  S
C11          C12   1.405       .  A
C11          H16   1.083       .  S
C12          C13   1.415       .  A
C12        C1164   1.499       .  S
C13          C14   1.405   1_556  A
C13          H17   1.083       .  S
C14          C15   1.402       .  A
C14        C1150   1.485       .  S
C15          H18   1.084       .  S
C19          C20   1.402       .  A
C19          C24   1.409       .  A
C19        C1139   1.485   1_655  S
C20          C21   1.398       .  A
C20          H25   1.084       .  S
C21          C22   1.403       .  A
C21        C1122   1.476       .  S
C22          C23   1.405       .  A
C22          H26   1.084       .  S
C23          C24   1.408       .  A
C23        C1108   1.490       .  S
C24          H27   1.084       .  S
C28          C29   1.400       .  A
C28          C33   1.409       .  A
C28        C1080   1.486       .  S
C29          C30   1.397       .  A
C29          H34   1.084       .  S
C30          C31   1.403       .  A
C30        C1097   1.476       .  S
C31          C32   1.406       .  A
C31          H35   1.084       .  S
C32          C33   1.407       .  A
C32        C1069   1.485       .  S
C33          H36   1.084       .  S
C37          C38   1.408       .  A
C37          C42   1.401       .  A
C37        C1038   1.485       .  S
C38          C39   1.405       .  A
C38          H43   1.084       .  S
C39          C40   1.406   1_556  A
C39        C1153   1.486   1_556  S
C40          C41   1.408       .  A
C40          H44   1.084       .  S
C41          C42   1.402   1_554  A
C41        C1052   1.488       .  S
C42          H45   1.084       .  S
C46          C47   1.401       .  A
C46          C51   1.398       .  A
C46        C1010   1.473       .  S
C47          C48   1.403       .  A
C47          H52   1.084       .  S
C48          C49   1.406   1_556  A
C48        C1195   1.485       .  S
C49          C50   1.412       .  A
C49          H53   1.083       .  S
C50          C51   1.404   1_554  A
C50        C1027   1.496       .  S
C51          H54   1.082       .  S
C55          C56   1.401       .  A
C55          C60   1.395       .  A
C55         C999   1.471       .  S
C56          C57   1.406       .  A
C56          H61   1.084       .  S
C57          C58   1.410       .  A
C57        C1111   1.491       .  S
C58          C59   1.410       .  A
C58          H62   1.083       .  S
C59          C60   1.401       .  A
C59         C982   1.488       .  S
C60          H63   1.084       .  S
C64          C65   1.407       .  A
C64          C69   1.399       .  A
C64         C954   1.479       .  S
C65          C66   1.408       .  A
C65          H70   1.084       .  S
C66          C67   1.406       .  A
C66        C1066   1.486       .  S
C67          C68   1.404       .  A
C67          H71   1.084       .  S
C68          C69   1.397       .  A
C68         C968   1.474   1_655  S
C69          H72   1.085       .  S
C73          C74   1.394       .  A
C73          C78   1.403       .  A
C73         C926   1.470       .  S
C74          C75   1.397   1_565  A
C74          H79   1.085       .  S
C75          C76   1.406       .  A
C75         C940   1.477       .  S
C76          C77   1.406   1_545  A
C76          H80   1.084       .  S
C77          C78   1.406       .  A
C77         C912   1.480       .  S
C78          H81   1.084       .  S
C82          C83   1.401   1_545  A
C82          C87   1.411       .  A
C82         C898   1.488       .  S
C83          C84   1.397       .  A
C83          H88   1.084       .  S
C84          C85   1.402       .  A
C84         C884   1.471       .  S
C85          C86   1.403       .  A
C85          H89   1.084       .  S
C86          C87   1.405   1_565  A
C86         C870   1.481   1_455  S
C87          H90   1.084       .  S
C91          C92   1.404       .  A
C91          C96   1.396       .  A
C91         C842   1.473       .  S
C92          C93   1.406       .  A
C92          H97   1.084       .  S
C93          C94   1.406   1_565  A
C93         C873   1.481       .  S
C94          C95   1.405       .  A
C94          H98   1.084       .  S
C95          C96   1.397   1_545  A
C95         C856   1.472       .  S
C96          H99   1.085       .  S
C100        C101   1.408       .  A
C100        C105   1.399   1_545  A
C100        C828   1.483       .  S
C101        C102   1.406   1_545  A
C101        H106   1.084       .  S
C102        C103   1.404       .  A
C102        C915   1.480   1_455  S
C103        C104   1.403       .  A
C103        H107   1.084       .  S
C104        C105   1.396       .  A
C104        C817   1.471       .  S
C105        H108   1.085       .  S
C109        C110   1.404       .  A
C109        C114   1.408       .  A
C109        C800   1.489       .  S
C110        C111   1.402       .  A
C110        H115   1.083       .  S
C111        C112   1.406       .  A
C111        C789   1.487       .  S
C112        C113   1.403       .  A
C112        H116   1.084       .  S
C113        C114   1.403       .  A
C113        C772   1.481       .  S
C114        H117   1.084       .  S
Fe118       O134   2.044       .  S
Fe118       O124   2.092       .  S
Fe118       O131   2.100       .  S
Fe118       O123   2.040       .  S
Fe118       O129   1.949       .  S
Fe119       O122   2.033       .  S
Fe119       O126   2.092       .  S
Fe119       O130   2.036       .  S
Fe119       O135   2.096       .  S
Fe119       O129   1.952       .  S
Fe120       O138   2.104       .  S
Fe120       O125   2.040       .  S
Fe120       O132   2.039       .  S
Fe120       O121   2.099       .  S
Fe120       O129   1.947       .  S
O121        C128   1.276       .  A
O122        C136   1.264       .  A
O123        C128   1.266       .  A
O124        C127   1.273       .  A
O125        C137   1.264       .  A
O126        C139   1.273       .  A
C127        C943   1.475       .  S
C127        O132   1.265       .  A
C128        C758   1.478       .  S
O130        C133   1.266       .  A
O131        C133   1.277       .  A
C133        C803   1.476       .  S
O134        C139   1.265       .  A
O135        C137   1.274       .  A
C136        C957   1.472       .  S
C136        O138   1.276       .  A
C137        C747   1.470       .  S
C139       C1181   1.470       .  S
C140        C141   1.402       .  A
C140        C145   1.411       .  A
C140        C716   1.494       .  S
C141        C142   1.397       .  A
C141        H146   1.084       .  S
C142        C143   1.405       .  A
C142        C730   1.485       .  S
C143        C144   1.404       .  A
C143        H147   1.084       .  S
C144        C145   1.407       .  A
C144        C702   1.483       .  S
C145        H148   1.083       .  S
C149        C150   1.401       .  A
C149        C154   1.409       .  A
C149        C688   1.491       .  S
C150        C151   1.401       .  A
C150        H155   1.084       .  S
C151        C152   1.406       .  A
C151        C761   1.485       .  S
C152        C153   1.406       .  A
C152        H156   1.084       .  S
C153        C154   1.408       .  A
C153        C674   1.490       .  S
C154        H157   1.083       .  S
Fe158       O174   2.107       .  S
Fe158       O164   2.028       .  S
Fe158       O171   2.027       .  S
Fe158       O163   2.110       .  S
Fe158       O169   1.947       .  S
Fe159       O162   2.116       .  S
Fe159       O166   2.029       .  S
Fe159       O170   2.110       .  S
Fe159       O175   2.021       .  S
Fe159       O169   1.945       .  S
Fe160       O178   2.030       .  S
Fe160       O165   2.109       .  S
Fe160       O172   2.104       .  S
Fe160       O161   2.032       .  S
Fe160       O169   1.946       .  S
O161        C168   1.265       .  A
O162        C176   1.280       .  A
O163        C168   1.279       .  A
O164        C167   1.262       .  A
O165        C177   1.277       .  A
O166        C179   1.264       .  A
C167        C859   1.466       .  S
C167        O172   1.276       .  A
C168        C691   1.482       .  S
O170        C173   1.278       .  A
O171        C173   1.264       .  A
C173        C663   1.480       .  S
O174        C179   1.278       .  A
O175        C177   1.260       .  A
C176       C1167   1.490       .  S
C176        O178   1.261       .  A
C177        C733   1.478       .  S
C179       C1083   1.478       .  S
C180        C181   1.398       .  A
C180        C185   1.405       .  A
C180        C744   1.480       .  S
C181        C182   1.401       .  A
C181        H186   1.084       .  S
C182        C183   1.410       .  A
C182        C646   1.486       .  S
C183        C184   1.407       .  A
C183        H187   1.084       .  S
C184        C185   1.407       .  A
C184        C632   1.489       .  S
C185        H188   1.084       .  S
C189        C190   1.403       .  A
C189        C194   1.398       .  A
C189        C604   1.474       .  S
C190        C191   1.405       .  A
C190        H195   1.084       .  S
C191        C192   1.405       .  A
C191        C775   1.480       .  S
C192        C193   1.405       .  A
C192        H196   1.084       .  S
C193        C194   1.398       .  A
C193        C618   1.475       .  S
C194        H197   1.085       .  S
Fe198       O214   2.104       .  S
Fe198       O204   2.034       .  S
Fe198       O211   2.030       .  S
Fe198       O203   2.091       .  S
Fe198       O209   1.958       .  S
Fe199       O202   2.093       .  S
Fe199       O206   2.034       .  S
Fe199       O210   2.102       .  S
Fe199       O215   2.036       .  S
Fe199       O209   1.955       .  S
Fe200       O218   2.036       .  S
Fe200       O205   2.102       .  S
Fe200       O212   2.105       .  S
Fe200       O201   2.036       .  S
Fe200       O209   1.957       .  S
O201        C208   1.263       .  A
O202        C216   1.274       .  A
O203        C208   1.272       .  A
O204        C207   1.265       .  A
O205        C217   1.277       .  A
O206        C219   1.262       .  A
C207        C649   1.478       .  S
C207        O212   1.278       .  A
C208       C1125   1.469       .  S
O210        C213   1.276       .  A
O211        C213   1.261       .  A
C213        C929   1.466       .  S
O214        C219   1.275       .  A
O215        C217   1.265       .  A
C216        C621   1.470       .  S
C216        O218   1.264       .  A
C217       C1055   1.480       .  S
C219        C590   1.470       .  S
C220        C221   1.403       .  A
C220        C225   1.410       .  A
C220        C576   1.492       .  S
C221        C222   1.398       .  A
C221        H226   1.083       .  S
C222        C223   1.403       .  A
C222        C593   1.476       .  S
C223        C224   1.403       .  A
C223        H227   1.084       .  S
C224        C225   1.406       .  A
C224        C562   1.483       .  S
C225        H228   1.083       .  S
C229        C230   1.408       .  A
C229        C234   1.400       .  A
C229        C660   1.490       .  S
C230        C231   1.407       .  A
C230        H235   1.084       .  S
C231        C232   1.406       .  A
C231        C635   1.489       .  S
C232        C233   1.409       .  A
C232        H236   1.083       .  S
C233        C234   1.402       .  A
C233        C548   1.490       .  S
C234        H237   1.083       .  S
C238        C239   1.407       .  A
C238        C243   1.397       .  A
C238        C534   1.481       .  S
C239        C240   1.406       .  A
C239        H244   1.084       .  S
C240        C241   1.407       .  A
C240        C705   1.483       .  S
C241        C242   1.407       .  A
C241        H245   1.084       .  S
C242        C243   1.396       .  A
C242        C520   1.478       .  S
C243        H246   1.085       .  S
Fe247       O263   2.033       .  S
Fe247       O253   2.099       .  S
Fe247       O260   2.098       .  S
Fe247       O252   2.038       .  S
Fe247       O258   1.942       .  S
Fe248       O251   2.032       .  S
Fe248       O255   2.104       .  S
Fe248       O259   2.033       .  S
Fe248       O264   2.106       .  S
Fe248       O258   1.948       .  S
Fe249       O267   2.102       .  S
Fe249       O254   2.036       .  S
Fe249       O261   2.037       .  S
Fe249       O250   2.101       .  S
Fe249       O258   1.946       .  S
O250        C257   1.275       .  A
O251        C265   1.264       .  A
O252        C257   1.263       .  A
O253        C256   1.277       .  A
O254        C266   1.265       .  A
O255        C268   1.277       .  A
C256        C579   1.481       .  S
C256        O261   1.265       .  A
C257        C845   1.467       .  S
O259        C262   1.265       .  A
O260        C262   1.275       .  A
C262        C985   1.480       .  S
O263        C268   1.264       .  A
O264        C266   1.277       .  A
C265        C523   1.473       .  S
C265        O267   1.275       .  A
C266       C1041   1.474       .  S
C268        C551   1.477       .  S
C269        C270   1.403       .  A
C269        C274   1.402       .  A
C269        C506   1.482       .  S
C270        C271   1.401       .  A
C270        H275   1.084       .  S
C271        C272   1.406       .  A
C271        C565   1.484       .  S
C272        C273   1.411       .  A
C272        H276   1.083       .  S
C273        C274   1.404       .  A
C273        C495   1.495       .  S
C274        H277   1.083       .  S
C278        C279   1.391       .  A
C278        C283   1.404       .  A
C278        C467   1.475       .  S
C279        C280   1.395       .  A
C279        H284   1.084       .  S
C280        C281   1.408       .  A
C280        C478   1.486       .  S
C281        C282   1.418       .  A
C281        H285   1.079       .  S
C282        C283   1.418       .  A
C282        C450   1.520       .  S
C283        H286   1.079       .  S
Fe287       O303   2.098       .  S
Fe287       O293   2.024       .  S
Fe287       O300   2.028       .  S
Fe287       O292   2.098       .  S
Fe287       O298   1.956       .  S
Fe288       O291   2.099       .  S
Fe288       O295   2.037       .  S
Fe288       O299   2.090       .  S
Fe288       O304   2.038       .  S
Fe288       O298   1.956       .  S
Fe289       O307   2.029       .  S
Fe289       O294   2.101       .  S
Fe289       O301   2.098       .  S
Fe289       O290   2.026       .  S
Fe289       O298   1.957       .  S
O290        C297   1.262       .  A
O291        C305   1.274       .  A
O292        C297   1.275       .  A
O293        C296   1.263       .  A
O294        C306   1.276       .  A
O295        C308   1.264       .  A
C296       C1209   1.474       .  S
C296        O301   1.276       .  A
C297        C537   1.475       .  S
O299        C302   1.274       .  A
O300        C302   1.262       .  A
C302        C509   1.473       .  S
O303        C308   1.275       .  A
O304        C306   1.264       .  A
C305        C996   1.468       .  S
C305        O307   1.261       .  A
C306        C464   1.469       .  S
C308        C887   1.467       .  S
C309        C310   1.413       .  A
C309        C314   1.401       .  A
C309        C422   1.496       .  S
C310        C311   1.407       .  A
C310        H315   1.083       .  S
C311        C312   1.404       .  A
C311        C677   1.488       .  S
C312        C313   1.403       .  A
C312        H316   1.084       .  S
C313        C314   1.399       .  A
C313        C436   1.474       .  S
C314        H317   1.083       .  S
Fe318       O334   2.034       .  S
Fe318       O324   2.109       .  S
Fe318       O331   2.102       .  S
Fe318       O323   2.036       .  S
Fe318       O329   1.948       .  S
Fe319       O322   2.034       .  S
Fe319       O326   2.094       .  S
Fe319       O330   2.034       .  S
Fe319       O335   2.103       .  S
Fe319       O329   1.956       .  S
Fe320       O338   2.103       .  S
Fe320       O325   2.032       .  S
Fe320       O332   2.033       .  S
Fe320       O321   2.101       .  S
Fe320       O329   1.954       .  S
O321        C328   1.274       .  A
O322        C336   1.263       .  A
O323        C328   1.263       .  A
O324        C327   1.280       .  A
O325        C337   1.265       .  A
O326        C339   1.274       .  A
C327        C425   1.483       .  S
C327        O332   1.267       .  A
C328        C901   1.483       .  S
O330        C333   1.264       .  A
O331        C333   1.278       .  A
C333       C1094   1.473       .  S
O334        C339   1.263       .  A
O335        C337   1.277       .  A
C336        C719   1.487       .  S
C336        O338   1.273       .  A
C337       C1013   1.466       .  S
C339        C481   1.477       .  S
C340        C341   1.405       .  A
C340        C345   1.391       .  A
C340        C394   1.475       .  S
C341        C342   1.421       .  A
C341        H346   1.080       .  S
C342        C343   1.421       .  A
C342        C453   1.529       .  S
C343        C344   1.404       .  A
C343        H347   1.077       .  S
C344        C345   1.390       .  A
C344        C411   1.475       .  S
C345        H348   1.085       .  S
Fe349       O365   2.023       .  S
Fe349       O355   2.097       .  S
Fe349       O362   2.093       .  S
Fe349       O354   2.029       .  S
Fe349       O360   1.951       .  S
Fe350       O353   2.032       .  S
Fe350       O357   2.100       .  S
Fe350       O361   2.041       .  S
Fe350       O366   2.100       .  S
Fe350       O360   1.951       .  S
Fe351       O369   2.108       .  S
Fe351       O356   2.035       .  S
Fe351       O363   2.032       .  S
Fe351       O352   2.099       .  S
Fe351       O360   1.948       .  S
O352        C359   1.277       .  A
O353        C367   1.264       .  A
O354        C359   1.263       .  A
O355        C358   1.274       .  A
O356        C368   1.262       .  A
O357        C370   1.276       .  A
C358        C814   1.466       .  S
C358        O363   1.263       .  A
C359        C492   1.479       .  S
O361        C364   1.264       .  A
O362        C364   1.273       .  A
C364        C607   1.466       .  S
O365        C370   1.262       .  A
O366        C368   1.274       .  A
C367       C1136   1.479       .  S
C367        O369   1.278       .  A
C368        C397   1.469       .  S
C370       C1220   1.468       .  S
Fe371       O387   2.099       .  S
Fe371       O377   2.029       .  S
Fe371       O384   2.036       .  S
Fe371       O376   2.097       .  S
Fe371       O382   1.947       .  S
Fe372       O375   2.096       .  S
Fe372       O379   2.031       .  S
Fe372       O383   2.093       .  S
Fe372       O388   2.035       .  S
Fe372       O382   1.950       .  S
Fe373       O391   2.041       .  S
Fe373       O378   2.099       .  S
Fe373       O385   2.101       .  S
Fe373       O374   2.037       .  S
Fe373       O382   1.948       .  S
O374        C381   1.264       .  A
O375        C389   1.275       .  A
O376        C381   1.274       .  A
O377        C380   1.263       .  A
O378        C390   1.275       .  A
O379        C392   1.264       .  A
C380       C1024   1.480       .  S
C380        O385   1.277       .  A
C381        C786   1.473       .  S
O383        C386   1.274       .  A
O384        C386   1.264       .  A
C386        C439   1.465       .  S
O387        C392   1.276       .  A
O388        C390   1.263       .  A
C389        C971   1.467       .  S
C389        O391   1.265       .  A
C390        C408   1.468       .  S
C392        C831   1.473       .  S
C393        C394   1.403       .  A
C393        C398   1.404       .  A
C393        H400   1.084       .  S
C394        C395   1.415       .  A
C395        C396   1.401       .  A
C395        N402   1.441       .  S
C396        C397   1.401       .  A
C396        H401   1.084       .  S
C397        C398   1.414       .  A
C398        N399   1.439       .  S
N399        O403   1.263       .  A
N399        O404   1.262       .  A
N402        O405   1.263       .  A
N402        O406   1.263       .  A
C407        C408   1.402       .  A
C407        C412   1.408       .  A
C407        H414   1.084       .  S
C408        C409   1.416       .  A
C409        C410   1.402       .  A
C409        N416   1.444       .  S
C410        C411   1.401       .  A
C410        H415   1.085       .  S
C411        C412   1.419       .  A
C412        N413   1.446       .  S
N413        O417   1.263       .  A
N413        O418   1.262       .  A
N416        O419   1.261       .  A
N416        O420   1.263       .  A
C421        C422   1.401       .  A
C421        C426   1.398       .  A
C421        H428   1.083       .  S
C422        C423   1.422       .  A
C423        C424   1.408       .  A
C423        N430   1.437       .  S
C424        C425   1.403       .  A
C424        H429   1.084       .  S
C425        C426   1.417       .  A
C426        N427   1.437       .  S
N427        O431   1.262       .  A
N427        O432   1.262       .  A
N430        O433   1.262       .  A
N430        O434   1.263       .  A
C435        C436   1.402       .  A
C435        C440   1.404       .  A
C435        H442   1.084       .  S
C436        C437   1.415       .  A
C437        C438   1.402       .  A
C437        N444   1.441       .  S
C438        C439   1.400       .  A
C438        H443   1.084       .  S
C439        C440   1.415       .  A
C440        N441   1.443       .  S
N441        O445   1.263       .  A
N441        O446   1.263       .  A
N444        O447   1.263       .  A
N444        O448   1.263       .  A
C449        C450   1.412       .  A
C449        C454   1.406       .  A
C449        H456   1.079       .  S
C450        C451   1.420       .  A
C451        C452   1.408       .  A
C451        N458   1.438       .  S
C452        C453   1.415       .  A
C452        H457   1.079       .  S
C453        C454   1.424       .  A
C454        N455   1.437       .  S
N455        O459   1.263       .  A
N455        O460   1.263       .  A
N458        O461   1.263       .  A
N458        O462   1.263       .  A
C463        C464   1.404       .  A
C463        C468   1.409       .  A
C463        H470   1.084       .  S
C464        C465   1.413       .  A
C465        C466   1.400       .  A
C465        N472   1.442       .  S
C466        C467   1.402       .  A
C466        H471   1.084       .  S
C467        C468   1.415       .  A
C468        N469   1.444       .  S
N469        O473   1.263       .  A
N469        O474   1.262       .  A
N472        O475   1.262       .  A
N472        O476   1.263       .  A
C477        C478   1.402       .  A
C477        C482   1.399       .  A
C477        H484   1.084       .  S
C478        C479   1.419       .  A
C479        C480   1.406       .  A
C479        N486   1.440       .  S
C480        C481   1.403       .  A
C480        H485   1.084       .  S
C481        C482   1.416       .  A
C482        N483   1.439       .  S
N483        O487   1.263       .  A
N483        O488   1.262       .  A
N486        O489   1.263       .  A
N486        O490   1.263       .  A
C491        C492   1.398       .  A
C491        C496   1.400       .  A
C491        H498   1.084       .  S
C492        C493   1.418       .  A
C493        C494   1.402       .  A
C493        N500   1.438       .  S
C494        C495   1.404       .  A
C494        H499   1.083       .  S
C495        C496   1.419       .  A
C496        N497   1.429       .  S
N497        O501   1.263       .  A
N497        O502   1.261       .  A
N500        O503   1.263       .  A
N500        O504   1.263       .  A
C505        C506   1.401       .  A
C505        C510   1.402       .  A
C505        H512   1.084       .  S
C506        C507   1.415       .  A
C507        C508   1.399       .  A
C507        N514   1.435       .  S
C508        C509   1.399       .  A
C508        H513   1.084       .  S
C509        C510   1.419       .  A
C510        N511   1.440       .  S
N511        O515   1.263       .  A
N511        O516   1.262       .  A
N514        O517   1.262       .  A
N514        O518   1.263       .  A
C519        C520   1.406       .  A
C519        C524   1.402       .  A
C519        H526   1.084       .  S
C520        C521   1.414       .  A
C521        C522   1.405       .  A
C521        N528   1.443       .  S
C522        C523   1.406       .  A
C522        H527   1.084       .  S
C523        C524   1.411       .  A
C524        N525   1.438       .  S
N525        O529   1.263       .  A
N525        O530   1.262       .  A
N528        O531   1.262       .  A
N528        O532   1.263       .  A
C533        C534   1.408       .  A
C533        C538   1.402       .  A
C533        H540   1.084       .  S
C534        C535   1.412       .  A
C535        C536   1.402       .  A
C535        N542   1.441       .  S
C536        C537   1.407       .  A
C536        H541   1.084       .  S
C537        C538   1.410       .  A
C538        N539   1.438       .  S
N539        O543   1.263       .  A
N539        O544   1.262       .  A
N542        O545   1.263       .  A
N542        O546   1.263       .  A
C547        C548   1.408       .  A
C547        C552   1.403       .  A
C547        H554   1.084       .  S
C548        C549   1.416       .  A
C549        C550   1.402       .  A
C549        N556   1.438       .  S
C550        C551   1.404       .  A
C550        H555   1.084       .  S
C551        C552   1.413       .  A
C552        N553   1.438       .  S
N553        O557   1.263       .  A
N553        O558   1.262       .  A
N556        O559   1.263       .  A
N556        O560   1.263       .  A
C561        C562   1.403       .  A
C561        C566   1.406       .  A
C561        H568   1.084       .  S
C562        C563   1.417       .  A
C563        C564   1.407       .  A
C563        N570   1.443       .  S
C564        C565   1.404       .  A
C564        H569   1.084       .  S
C565        C566   1.415       .  A
C566        N567   1.441       .  S
N567        O571   1.263       .  A
N567        O572   1.263       .  A
N570        O573   1.263       .  A
N570        O574   1.263       .  A
C575        C576   1.404       .  A
C575        C580   1.402       .  A
C575        H582   1.084       .  S
C576        C577   1.421       .  A
C577        C578   1.402       .  A
C577        N584   1.437       .  S
C578        C579   1.400       .  A
C578        H583   1.084       .  S
C579        C580   1.418       .  A
C580        N581   1.438       .  S
N581        O585   1.263       .  A
N581        O586   1.263       .  A
N584        O587   1.263       .  A
N584        O588   1.262       .  A
C589        C590   1.400       .  A
C589        C594   1.402       .  A
C589        H596   1.083       .  S
C590        C591   1.412       .  A
C591        C592   1.403       .  A
C591        N598   1.436       .  S
C592        C593   1.403       .  A
C592        H597   1.084       .  S
C593        C594   1.415       .  A
C594        N595   1.440       .  S
N595        O599   1.263       .  A
N595        O600   1.262       .  A
N598        O601   1.262       .  A
N598        O602   1.263       .  A
C603        C604   1.402       .  A
C603        C608   1.404       .  A
C603        H610   1.084       .  S
C604        C605   1.415       .  A
C605        C606   1.404       .  A
C605        N612   1.443       .  S
C606        C607   1.401       .  A
C606        H611   1.084       .  S
C607        C608   1.414       .  A
C608        N609   1.443       .  S
N609        O613   1.263       .  A
N609        O614   1.263       .  A
N612        O615   1.263       .  A
N612        O616   1.263       .  A
C617        C618   1.405       .  A
C617        C622   1.403       .  A
C617        H624   1.084       .  S
C618        C619   1.413       .  A
C619        C620   1.404       .  A
C619        N626   1.442       .  S
C620        C621   1.404       .  A
C620        H625   1.084       .  S
C621        C622   1.412       .  A
C622        N623   1.440       .  S
N623        O627   1.263       .  A
N623        O628   1.262       .  A
N626        O629   1.263       .  A
N626        O630   1.263       .  A
C631        C632   1.405       .  A
C631        C636   1.412       .  A
C631        H638   1.084       .  S
C632        C633   1.413       .  A
C633        C634   1.403       .  A
C633        N640   1.436       .  S
C634        C635   1.403       .  A
C634        H639   1.084       .  S
C635        C636   1.419       .  A
C636        N637   1.442       .  S
N637        O641   1.263       .  A
N637        O642   1.263       .  A
N640        O643   1.263       .  A
N640        O644   1.262       .  A
C645        C646   1.401       .  A
C645        C650   1.403       .  A
C645        H652   1.084       .  S
C646        C647   1.420       .  A
C647        C648   1.405       .  A
C647        N654   1.439       .  S
C648        C649   1.400       .  A
C648        H653   1.084       .  S
C649        C650   1.418       .  A
C650        N651   1.440       .  S
N651        O655   1.263       .  A
N651        O656   1.263       .  A
N654        O657   1.263       .  A
N654        O658   1.263       .  A
C659        C660   1.410       .  A
C659        C664   1.405       .  A
C659        H666   1.083       .  S
C660        C661   1.414       .  A
C661        C662   1.402       .  A
C661        N668   1.439       .  S
C662        C663   1.406       .  A
C662        H667   1.084       .  S
C663        C664   1.411       .  A
C664        N665   1.437       .  S
N665        O669   1.263       .  A
N665        O670   1.262       .  A
N668        O671   1.263       .  A
N668        O672   1.263       .  A
C673        C674   1.406       .  A
C673        C678   1.410       .  A
C673        H680   1.084       .  S
C674        C675   1.416       .  A
C675        C676   1.405       .  A
C675        N682   1.440       .  S
C676        C677   1.404       .  A
C676        H681   1.084       .  S
C677        C678   1.417       .  A
C678        N679   1.442       .  S
N679        O683   1.263       .  A
N679        O684   1.263       .  A
N682        O685   1.263       .  A
N682        O686   1.263       .  A
C687        C688   1.410       .  A
C687        C692   1.405       .  A
C687        H694   1.083       .  S
C688        C689   1.414       .  A
C689        C690   1.402       .  A
C689        N696   1.439       .  S
C690        C691   1.407       .  A
C690        H695   1.084       .  S
C691        C692   1.412       .  A
C692        N693   1.437       .  S
N693        O697   1.263       .  A
N693        O698   1.262       .  A
N696        O699   1.263       .  A
N696        O700   1.263       .  A
C701        C702   1.402       .  A
C701        C706   1.408       .  A
C701        H708   1.084       .  S
C702        C703   1.419       .  A
C703        C704   1.410       .  A
C703        N710   1.445       .  S
C704        C705   1.403       .  A
C704        H709   1.084       .  S
C705        C706   1.418       .  A
C706        N707   1.444       .  S
N707        O711   1.263       .  A
N707        O712   1.262       .  A
N710        O713   1.262       .  A
N710        O714   1.263       .  A
C715        C716   1.409       .  A
C715        C720   1.402       .  A
C715        H722   1.081       .  S
C716        C717   1.413       .  A
C717        C718   1.405       .  A
C717        N724   1.440       .  S
C718        C719   1.411       .  A
C718        H723   1.084       .  S
C719        C720   1.415       .  A
C720        N721   1.438       .  S
N721        O725   1.263       .  A
N721        O726   1.261       .  A
N724        O727   1.263       .  A
N724        O728   1.263       .  A
C729        C730   1.399       .  A
C729        C734   1.400       .  A
C729        H736   1.084       .  S
C730        C731   1.421       .  A
C731        C732   1.404       .  A
C731        N738   1.438       .  S
C732        C733   1.399       .  A
C732        H737   1.084       .  S
C733        C734   1.420       .  A
C734        N735   1.438       .  S
N735        O739   1.263       .  A
N735        O740   1.263       .  A
N738        O741   1.263       .  A
N738        O742   1.263       .  A
C743        C744   1.404       .  A
C743        C748   1.405       .  A
C743        H750   1.084       .  S
C744        C745   1.413       .  A
C745        C746   1.401       .  A
C745        N752   1.437       .  S
C746        C747   1.401       .  A
C746        H751   1.084       .  S
C747        C748   1.414       .  A
C748        N749   1.440       .  S
N749        O753   1.263       .  A
N749        O754   1.262       .  A
N752        O755   1.262       .  A
N752        O756   1.263       .  A
C757        C758   1.401       .  A
C757        C762   1.404       .  A
C757        H764   1.084       .  S
C758        C759   1.418       .  A
C759        C760   1.403       .  A
C759        N766   1.439       .  S
C760        C761   1.402       .  A
C760        H765   1.084       .  S
C761        C762   1.419       .  A
C762        N763   1.439       .  S
N763        O767   1.263       .  A
N763        O768   1.263       .  A
N766        O769   1.263       .  A
N766        O770   1.263       .  A
C771        C772   1.404       .  A
C771        C776   1.410       .  A
C771        H778   1.084       .  S
C772        C773   1.412       .  A
C773        C774   1.401       .  A
C773        N780   1.439       .  S
C774        C775   1.402       .  A
C774        H779   1.084       .  S
C775        C776   1.418       .  A
C776        N777   1.443       .  S
N777        O781   1.263       .  A
N777        O782   1.263       .  A
N780        O783   1.263       .  A
N780        O784   1.263       .  A
C785        C786   1.401       .  A
C785        C790   1.399       .  A
C785        H792   1.085       .  S
C786        C787   1.413       .  A
C787        C788   1.404       .  A
C787        N794   1.438       .  S
C788        C789   1.407       .  A
C788        H793   1.084       .  S
C789        C790   1.416       .  A
C790        N791   1.436       .  S
N791        O795   1.263       .  A
N791        O796   1.262       .  A
N794        O797   1.262       .  A
N794        O798   1.263       .  A
C799        C800   1.403       .  A
C799        C804   1.401       .  A
C799        H806   1.084       .  S
C800        C801   1.421       .  A
C801        C802   1.405       .  A
C801        N808   1.438       .  S
C802        C803   1.400       .  A
C802        H807   1.084       .  S
C803        C804   1.416       .  A
C804        N805   1.439       .  S
N805        O809   1.263       .  A
N805        O810   1.263       .  A
N808        O811   1.263       .  A
N808        O812   1.263       .  A
C813        C814   1.399       .  A
C813        C818   1.405       .  A
C813        H820   1.084       .  S
C814        C815   1.414       .  A
C815        C816   1.401       .  A
C815        N822   1.440       .  S
C816        C817   1.399       .  A
C816        H821   1.084       .  S
C817        C818   1.417       .  A
C818        N819   1.442       .  S
N819        O823   1.263       .  A
N819        O824   1.263       .  A
N822        O825   1.262       .  A
N822        O826   1.263       .  A
C827        C828   1.408       .  A
C827        C832   1.402       .  A
C827        H834   1.084       .  S
C828        C829   1.414       .  A
C829        C830   1.402       .  A
C829        N836   1.440       .  S
C830        C831   1.405       .  A
C830        H835   1.084       .  S
C831        C832   1.411       .  A
C832        N833   1.438       .  S
N833        O837   1.263       .  A
N833        O838   1.262       .  A
N836        O839   1.263       .  A
N836        O840   1.263       .  A
C841        C842   1.400       .  A
C841        C846   1.401       .  A
C841        H848   1.084       .  S
C842        C843   1.416       .  A
C843        C844   1.406       .  A
C843        N850   1.443       .  S
C844        C845   1.401       .  A
C844        H849   1.083       .  S
C845        C846   1.413       .  A
C846        N847   1.439       .  S
N847        O851   1.263       .  A
N847        O852   1.262       .  A
N850        O853   1.262       .  A
N850        O854   1.263       .  A
C855        C856   1.401       .  A
C855        C860   1.404       .  A
C855        H862   1.084       .  S
C856        C857   1.416       .  A
C857        C858   1.406       .  A
C857        N864   1.446       .  S
C858        C859   1.403       .  A
C858        H863   1.084       .  S
C859        C860   1.418       .  A
C860        N861   1.449       .  S
N861        O865   1.263       .  A
N861        O866   1.262       .  A
N864        O867   1.262       .  A
N864        O868   1.263       .  A
C869        C870   1.402       .  A
C869        C874   1.403       .  A
C869        H876   1.084       .  S
C870        C871   1.418       .  A
C871        C872   1.412       .  A
C871        N878   1.444       .  S
C872        C873   1.404       .  A
C872        H877   1.084   1_565  S
C873        C874   1.414       .  A
C874        N875   1.441       .  S
N875        O879   1.263       .  A
N875        O880   1.262   1_565  A
N878        O881   1.262       .  A
N878        O882   1.263   1_565  A
C883        C884   1.399       .  A
C883        C888   1.401       .  A
C883        H890   1.084       .  S
C884        C885   1.416       .  A
C885        C886   1.406       .  A
C885        N892   1.444       .  S
C886        C887   1.401       .  A
C886        H891   1.084       .  S
C887        C888   1.414       .  A
C888        N889   1.441       .  S
N889        O893   1.263       .  A
N889        O894   1.261       .  A
N892        O895   1.262       .  A
N892        O896   1.263       .  A
C897        C898   1.409       .  A
C897        C902   1.407       .  A
C897        H904   1.084       .  S
C898        C899   1.413       .  A
C899        C900   1.399       .  A
C899        N906   1.438       .  S
C900        C901   1.404       .  A
C900        H905   1.078       .  S
C901        C902   1.414       .  A
C902        N903   1.438       .  S
N903        O907   1.263       .  A
N903        O908   1.263       .  A
N906        O909   1.263       .  A
N906        O910   1.262       .  A
C911        C912   1.402       .  A
C911        C916   1.404       .  A
C911        H918   1.084   1_565  S
C912        C913   1.420       .  A
C913        C914   1.412       .  A
C913        N920   1.448       .  S
C914        C915   1.404       .  A
C914        H919   1.084       .  S
C915        C916   1.415       .  A
C916        N917   1.444   1_565  S
N917        O921   1.263   1_545  A
N917        O922   1.262       .  A
N920        O923   1.262       .  A
N920        O924   1.263       .  A
C925        C926   1.402       .  A
C925        C930   1.403       .  A
C925        H932   1.084       .  S
C926        C927   1.417       .  A
C927        C928   1.404       .  A
C927        N934   1.447       .  S
C928        C929   1.401       .  A
C928        H933   1.081       .  S
C929        C930   1.413       .  A
C930        N931   1.442       .  S
N931        O935   1.263       .  A
N931        O936   1.262       .  A
N934        O937   1.262       .  A
N934        O938   1.263       .  A
C939        C940   1.404       .  A
C939        C944   1.403       .  A
C939        H946   1.084       .  S
C940        C941   1.411       .  A
C941        C942   1.403       .  A
C941        N948   1.442       .  S
C942        C943   1.407       .  A
C942        H947   1.084       .  S
C943        C944   1.417       .  A
C944        N945   1.441       .  S
N945        O949   1.263       .  A
N945        O950   1.261       .  A
N948        O951   1.263       .  A
N948        O952   1.263       .  A
C953        C954   1.406       .  A
C953        C958   1.406       .  A
C953        H960   1.084       .  S
C954        C955   1.415       .  A
C955        C956   1.402       .  A
C955        N962   1.441       .  S
C956        C957   1.404       .  A
C956        H961   1.085       .  S
C957        C958   1.413       .  A
C958        N959   1.440       .  S
N959        O963   1.263       .  A
N959        O964   1.262       .  A
N962        O965   1.261       .  A
N962        O966   1.263       .  A
C967        C968   1.402       .  A
C967        C972   1.406       .  A
C967        H974   1.084       .  S
C968        C969   1.419       .  A
C969        C970   1.407       .  A
C969        N976   1.450       .  S
C970        C971   1.402       .  A
C970        H975   1.084       .  S
C971        C972   1.417       .  A
C972        N973   1.450       .  S
N973        O977   1.263       .  A
N973        O978   1.262       .  A
N976        O979   1.262   1_455  A
N976        O980   1.263       .  A
C981        C982   1.409       .  A
C981        C986   1.400       .  A
C981        H988   1.084       .  S
C982        C983   1.414       .  A
C983        C984   1.403       .  A
C983        N990   1.439       .  S
C984        C985   1.407       .  A
C984        H989   1.084       .  S
C985        C986   1.409       .  A
C986        N987   1.433       .  S
N987        O991   1.262       .  A
N987        O992   1.262       .  A
N990        O993   1.263       .  A
N990        O994   1.263       .  A
C995        C996   1.400       .  A
C995       C1000   1.406       .  A
C995       H1002   1.084       .  S
C996        C997   1.419       .  A
C997        C998   1.402       .  A
C997       N1004   1.445       .  S
C998        C999   1.399   1_455  A
C998       H1003   1.084       .  S
C999       C1000   1.419   1_655  A
C1000      N1001   1.447   1_455  S
N1001      O1005   1.263   1_655  A
N1001      O1006   1.262       .  A
N1004      O1007   1.261       .  A
N1004      O1008   1.263       .  A
C1009      C1010   1.399       .  A
C1009      C1014   1.402       .  A
C1009      H1016   1.084       .  S
C1010      C1011   1.415       .  A
C1011      C1012   1.402       .  A
C1011      N1018   1.439       .  S
C1012      C1013   1.398       .  A
C1012      H1017   1.084       .  S
C1013      C1014   1.418       .  A
C1014      N1015   1.439       .  S
N1015      O1019   1.263       .  A
N1015      O1020   1.261       .  A
N1018      O1021   1.263       .  A
N1018      O1022   1.263       .  A
C1023      C1024   1.399       .  A
C1023      C1028   1.401       .  A
C1023      H1030   1.084       .  S
C1024      C1025   1.419       .  A
C1025      C1026   1.401       .  A
C1025      N1032   1.438       .  S
C1026      C1027   1.404       .  A
C1026      H1031   1.083       .  S
C1027      C1028   1.421       .  A
C1028      N1029   1.432       .  S
N1029      O1033   1.261       .  A
N1029      O1034   1.263       .  A
N1032      O1035   1.263       .  A
N1032      O1036   1.262       .  A
C1037      C1038   1.403       .  A
C1037      C1042   1.403       .  A
C1037      H1044   1.084       .  S
C1038      C1039   1.418       .  A
C1039      C1040   1.406       .  A
C1039      N1046   1.441       .  S
C1040      C1041   1.402       .  A
C1040      H1045   1.084       .  S
C1041      C1042   1.415       .  A
C1042      N1043   1.441       .  S
N1043      O1047   1.263       .  A
N1043      O1048   1.263       .  A
N1046      O1049   1.263       .  A
N1046      O1050   1.263       .  A
C1051      C1052   1.401       .  A
C1051      C1056   1.402       .  A
C1051      H1058   1.084       .  S
C1052      C1053   1.421       .  A
C1053      C1054   1.406       .  A
C1053      N1060   1.438       .  S
C1054      C1055   1.401       .  A
C1054      H1059   1.084       .  S
C1055      C1056   1.418       .  A
C1056      N1057   1.439       .  S
N1057      O1061   1.263       .  A
N1057      O1062   1.263       .  A
N1060      O1063   1.263       .  A
N1060      O1064   1.263       .  A
C1065      C1066   1.403       .  A
C1065      C1070   1.406   1_554  A
C1065      H1072   1.084       .  S
C1066      C1067   1.417       .  A
C1067      C1068   1.409   1_554  A
C1067      N1074   1.441       .  S
C1068      C1069   1.404       .  A
C1068      H1073   1.084       .  S
C1069      C1070   1.416       .  A
C1070      N1071   1.441       .  S
N1071      O1075   1.263       .  A
N1071      O1076   1.263       .  A
N1074      O1077   1.263       .  A
N1074      O1078   1.263       .  A
C1079      C1080   1.409       .  A
C1079      C1084   1.404       .  A
C1079      H1086   1.084       .  S
C1080      C1081   1.413       .  A
C1081      C1082   1.402       .  A
C1081      N1088   1.440       .  S
C1082      C1083   1.407       .  A
C1082      H1087   1.084       .  S
C1083      C1084   1.412       .  A
C1084      N1085   1.438       .  S
N1085      O1089   1.263       .  A
N1085      O1090   1.262       .  A
N1088      O1091   1.263       .  A
N1088      O1092   1.263       .  A
C1093      C1094   1.405       .  A
C1093      C1098   1.406       .  A
C1093      H1100   1.084       .  S
C1094      C1095   1.408       .  A
C1095      C1096   1.400       .  A
C1095      N1102   1.434       .  S
C1096      C1097   1.404   1_455  A
C1096      H1101   1.084   1_455  S
C1097      C1098   1.414   1_655  A
C1098      N1099   1.442       .  S
N1099      O1103   1.263       .  A
N1099      O1104   1.263   1_455  A
N1102      O1105   1.262       .  A
N1102      O1106   1.262       .  A
C1107      C1108   1.405       .  A
C1107      C1112   1.404   1_554  A
C1107      H1114   1.084       .  S
C1108      C1109   1.417       .  A
C1109      C1110   1.408   1_554  A
C1109      N1116   1.441       .  S
C1110      C1111   1.407       .  A
C1110      H1115   1.084       .  S
C1111      C1112   1.416       .  A
C1112      N1113   1.438       .  S
N1113      O1117   1.263       .  A
N1113      O1118   1.263       .  A
N1116      O1119   1.263       .  A
N1116      O1120   1.263   1_655  A
C1121      C1122   1.402       .  A
C1121      C1126   1.401       .  A
C1121      H1128   1.084       .  S
C1122      C1123   1.420       .  A
C1123      C1124   1.408       .  A
C1123      N1130   1.449       .  S
C1124      C1125   1.402       .  A
C1124      H1129   1.084       .  S
C1125      C1126   1.416       .  A
C1126      N1127   1.444       .  S
N1127      O1131   1.263       .  A
N1127      O1132   1.261       .  A
N1130      O1133   1.262       .  A
N1130      O1134   1.263       .  A
C1135      C1136   1.402       .  A
C1135      C1140   1.406       .  A
C1135      H1142   1.084       .  S
C1136      C1137   1.420       .  A
C1137      C1138   1.401       .  A
C1137      N1144   1.441       .  S
C1138      C1139   1.400       .  A
C1138      H1143   1.084       .  S
C1139      C1140   1.419       .  A
C1140      N1141   1.440   1_455  S
N1141      O1145   1.263       .  A
N1141      O1146   1.263       .  A
N1144      O1147   1.262       .  A
N1144      O1148   1.263       .  A
C1149      C1150   1.402       .  A
C1149      C1154   1.406   1_545  A
C1149      H1156   1.084       .  S
C1150      C1151   1.417   1_554  A
C1151      C1152   1.412   1_545  A
C1151      N1158   1.444       .  S
C1152      C1153   1.406   1_556  A
C1152      H1157   1.084       .  S
C1153      C1154   1.418       .  A
C1154      N1155   1.444       .  S
N1155      O1159   1.263   1_554  A
N1155      O1160   1.261       .  A
N1158      O1161   1.262   1_556  A
N1158      O1162   1.263       .  A
C1163      C1164   1.402       .  A
C1163      C1168   1.397       .  A
C1163      H1170   1.082       .  S
C1164      C1165   1.422       .  A
C1165      C1166   1.408       .  A
C1165      N1172   1.437       .  S
C1166      C1167   1.405       .  A
C1166      H1171   1.084       .  S
C1167      C1168   1.420       .  A
C1168      N1169   1.434       .  S
N1169      O1173   1.262       .  A
N1169      O1174   1.263       .  A
N1172      O1175   1.263       .  A
N1172      O1176   1.262       .  A
C1177      C1178   1.402       .  A
C1177      C1182   1.406       .  A
C1177      H1184   1.084       .  S
C1178      C1179   1.415       .  A
C1179      C1180   1.402       .  A
C1179      N1186   1.439       .  S
C1180      C1181   1.401       .  A
C1180      H1185   1.084       .  S
C1181      C1182   1.418       .  A
C1182      N1183   1.446       .  S
N1183      O1187   1.263       .  A
N1183      O1188   1.263       .  A
N1186      O1189   1.263       .  A
N1186      O1190   1.263       .  A
C1191      C1192   1.405       .  A
C1191      C1196   1.408   1_565  A
C1191      H1198   1.084       .  S
C1192      C1193   1.416   1_554  A
C1193      C1194   1.404   1_565  A
C1193      N1200   1.440       .  S
C1194      C1195   1.403       .  A
C1194      H1199   1.084       .  S
C1195      C1196   1.417   1_556  A
C1196      N1197   1.442       .  S
N1197      O1201   1.263       .  A
N1197      O1202   1.263       .  A
N1200      O1203   1.263       .  A
N1200      O1204   1.263       .  A
C1205      C1206   1.408       .  A
C1205      C1210   1.402       .  A
C1205      H1212   1.084       .  S
C1206      C1207   1.411       .  A
C1207      C1208   1.400       .  A
C1207      N1214   1.440       .  S
C1208      C1209   1.407       .  A
C1208      H1213   1.084       .  S
C1209      C1210   1.411       .  A
C1210      N1211   1.438       .  S
N1211      O1215   1.263       .  A
N1211      O1216   1.262       .  A
N1214      O1217   1.263       .  A
N1214      O1218   1.263       .  A
C1219      C1220   1.399       .  A
C1219      C1224   1.402       .  A
C1219      H1226   1.084       .  S
C1220      C1221   1.417       .  A
C1221      C1222   1.401       .  A
C1221      N1228   1.441       .  S
C1222      C1223   1.399       .  A
C1222      H1227   1.084       .  S
C1223      C1224   1.418       .  A
C1224      N1225   1.441       .  S
N1225      O1229   1.263       .  A
N1225      O1230   1.263       .  A
N1228      O1231   1.262       .  A
N1228      O1232   1.263       .  A
