geometry optimzed in LAMMPS
_audit_creation_date              2020-11-30 
_audit_creation_method            'lammps2cif' 
_symmetry_space_group_name_H-M    'P1' 
_symmetry_Int_Tables_number       1 
_symmetry_cell_setting            triclinic 
loop_ 
_symmetry_equiv_pos_as_xyz 
  x,y,z 
_cell_length_a                    59.04220515221594 
_cell_length_b                    59.62760148895196 
_cell_length_c                    48.73121159285447 
_cell_angle_alpha                 94.88321703513054 
_cell_angle_beta                  89.87533410474767 
_cell_angle_gamma                 119.50207081213921 
loop_ 
_atom_site_label 
_atom_site_type_symbol 
_atom_site_fract_x 
_atom_site_fract_y 
_atom_site_fract_z 
_atom_site_charge 
O1          O  0.36609894  0.33203635  0.31098300    -0.74210
O2          O  0.40618317  0.36661813  0.30675615    -0.53120
C3          C  0.38188674  0.35264645  0.29977227     0.79520
O4          O  0.36859725  0.33868194  0.44510263    -0.58810
O5          O  0.37020892  0.30227475  0.45232297    -0.51840
C6          C  0.36171146  0.31857462  0.45770248     0.71530
O7          O  0.40652503  0.39915666  0.39088950    -0.73370
O8          O  0.42975289  0.40678316  0.35200878    -0.53940
C9          C  0.41845666  0.41282588  0.37140991     0.77530
O10         O  0.34156273  0.26558786  0.36321993    -0.58520
O11         O  0.35607363  0.26068453  0.40475428    -0.51640
C12         C  0.33964517  0.25303944  0.38401259     0.74120
Zr13       Zr  0.36954953  0.30695308  0.34644116     2.54710
O14         O  0.32674385  0.30330699  0.34981129    -0.79080
O15         O  0.35627234  0.27604755  0.30559600    -0.92500
Zr16       Zr  0.39617205  0.35992589  0.40926379     2.64680
O17         O  0.35766676  0.36471048  0.40551471    -0.97450
O18         O  0.41362065  0.39126109  0.44975261    -0.79520
O19         O  0.39119922  0.35151727  0.36083826    -0.82870
O20         O  0.37314768  0.31539055  0.39528154    -2.17580
O21         O  0.42017707  0.26445213  0.36228209    -0.66260
O22         O  0.40162234  0.26018248  0.40410471    -0.50830
C23         C  0.40913964  0.25164545  0.38281468     0.72510
O24         O  0.49079672  0.40157170  0.39251929    -0.59170
O25         O  0.47523214  0.40708104  0.35223853    -0.51150
C26         C  0.49175583  0.41473476  0.37267532     0.74310
O27         O  0.46922249  0.33731628  0.44290086    -0.70570
O28         O  0.42919637  0.30612442  0.45473894    -0.49240
C29         C  0.45430820  0.32089259  0.45895869     0.75690
O30         O  0.46402728  0.33132498  0.31090169    -0.65900
O31         O  0.45879993  0.36622589  0.30560315    -0.53090
C32         C  0.46850214  0.35149355  0.29899246     0.74070
Zr33       Zr  0.43580051  0.30663913  0.34658801     2.77540
O34         O  0.47434007  0.30181750  0.34961120    -0.96640
O35         O  0.41858353  0.27668312  0.30506023    -0.77470
Zr36       Zr  0.46284641  0.36009947  0.40866896     2.70070
O37         O  0.50598881  0.36459854  0.40521827    -0.78710
O38         O  0.47665584  0.39189895  0.44876783    -0.97800
Zr39       Zr  0.43373134  0.36843382  0.34396941     2.21500
Zr40       Zr  0.39841076  0.29891552  0.41506171     2.11130
O41         O  0.44029194  0.31512487  0.39534377    -2.46480
O42         O  0.45945637  0.35141374  0.36033214    -0.78510
O43         O  0.39441100  0.29046560  0.36561568    -0.70700
O44         O  0.43824866  0.37784489  0.39262494    -2.31660
O45         O  0.41125255  0.32373014  0.32784064    -2.27870
O46         O  0.42154522  0.34401036  0.42879802    -0.72460
H47         H  0.35575057  0.30752146  0.40199402     0.79540
H48         H  0.44710358  0.39619924  0.39816545     0.80620
H49         H  0.44931835  0.30676104  0.40210469     0.82850
H50         H  0.41007267  0.32116842  0.30793928     0.80460
H51         H  0.42989847  0.40580690  0.44380990     0.43490
H52         H  0.46100580  0.38625725  0.45980990     0.42460
H53         H  0.00397632  0.35166325  0.38987159     0.42140
H54         H  0.47395388  0.29553012  0.36785708     0.40070
H55         H  0.39977795  0.26584434  0.30805270     0.43210
H56         H  0.36521410  0.28654544  0.29027941     0.37990
H57         H  0.33040231  0.32128292  0.35464846     0.44110
H58         H  0.34280963  0.34679906  0.40340119     0.40520
H59         H  0.47047563  0.28680576  0.33619708     0.45440
H60         H  0.33766184  0.27056280  0.30212338     0.44160
H61         H  0.35619706  0.37193240  0.42406713     0.44300
H62         H  0.48876738  0.38878802  0.45971798     0.44660
O63         O  0.41979678  0.15392936  0.40180593    -0.74210
O64         O  0.40311153  0.13949473  0.35761678    -0.53120
C65         C  0.40993667  0.15579010  0.37928891     0.79520
O66         O  0.48852784  0.08277020  0.39096336    -0.58810
O67         O  0.47157498  0.06434674  0.43056661    -0.51840
C68         C  0.48863478  0.07124843  0.41209988     0.71530
O69         O  0.46928000  0.11970862  0.32625282    -0.73370
O70         O  0.43231756  0.11998046  0.31306392    -0.53940
C71         C  0.45587708  0.12440640  0.30936293     0.77530
O72         O  0.45688659  0.13134958  0.46422224    -0.58520
O73         O  0.45557452  0.09304003  0.46979413    -0.51640
C74         C  0.46387289  0.11739667  0.47656750     0.74120
Zr75       Zr  0.43066741  0.12538844  0.42316206     2.54710
O76         O  0.46747007  0.16927488  0.42875488    -0.79080
O77         O  0.40761300  0.13521259  0.45947252    -0.92500
Zr78       Zr  0.46502963  0.10096204  0.36918554     2.64680
O79         O  0.50254633  0.14290714  0.38402903    -0.97450
O80         O  0.49241612  0.09237682  0.33755885    -0.79520
O81         O  0.44120459  0.12318719  0.37606478    -0.82870
O82         O  0.45598736  0.10488231  0.41566425    -2.17580
O83         O  0.35845063  0.02803088  0.44624932    -0.66260
O84         O  0.39741843  0.03225531  0.45982807    -0.50830
C85         C  0.37229445  0.02138803  0.46038885     0.72510
O86         O  0.36530871  0.03203466  0.32724189    -0.59170
O87         O  0.38251614  0.06831419  0.30634576    -0.51150
C88         C  0.36925028  0.04340511  0.30532184     0.74310
O89         O  0.41254649  0.00857708  0.37781984    -0.70570
O90         O  0.42947845  0.02201052  0.42204748    -0.49240
C91         C  0.42206261  0.00624771  0.40015626     0.75690
O92         O  0.33721842  0.06473793  0.38130208    -0.65900
O93         O  0.35653967  0.08843634  0.34510646    -0.53090
C94         C  0.33680170  0.07549798  0.35961313     0.74070
Zr95       Zr  0.36605572  0.05893346  0.41192295     2.77540
O96         O  0.32153710  0.02283583  0.40736248    -0.96640
O97         O  0.35299956  0.08082111  0.44764089    -0.77470
Zr98       Zr  0.39973244  0.03504042  0.35630114     2.70070
O99         O  0.36797561  0.48919496  0.34773537    -0.78710
O100        O  0.41838606  0.02672249  0.31466750    -0.97800
Zr101      Zr  0.40128129  0.09782483  0.34906312     2.21500
Zr102      Zr  0.42990890  0.06254246  0.43002515     2.11130
O103        O  0.38999869  0.03715769  0.40309889    -2.46480
O104        O  0.37526183  0.05589669  0.36471242    -0.78510
O105        O  0.40525796  0.08390807  0.43948564    -0.70700
O106        O  0.42606592  0.07630328  0.34143850    -2.31660
O107        O  0.39098130  0.10074941  0.39677576    -2.27870
O108        O  0.43923468  0.05898755  0.38261469    -0.72460
H109        H  0.47276498  0.11423068  0.42539680     0.79540
H110        H  0.42945077  0.07457360  0.32220554     0.80620
H111        H  0.38060745  0.01951601  0.40774666     0.82850
H112        H  0.38055448  0.10911300  0.39898682     0.80460
H113        H  0.48034573  0.07542414  0.32741791     0.43490
H114        H  0.42896341  0.01928817  0.32105034     0.42460
H115        H  0.35465315  0.98626109  0.36148972     0.42140
H116        H  0.32324271  0.00709071  0.40472925     0.40070
H117        H  0.35606808  0.07512724  0.46507677     0.43210
H118        H  0.39225664  0.13406199  0.44989187     0.37990
H119        H  0.48228685  0.16761481  0.42143951     0.44110
H120        H  0.51369563  0.13885368  0.39540931     0.40520
H121        H  0.31442397  0.02239705  0.42585430     0.45440
H122        H  0.41895176  0.15391201  0.46511620     0.44160
H123        H  0.01220636  0.14872662  0.36707291     0.44300
H124        H  0.40342694  0.01204501  0.30397311     0.44660
O125        O  0.00818280  0.40975804  0.13651381    -0.74210
O126        O  0.03050448  0.43462878  0.17579667    -0.53120
C127        C  0.01052556  0.42389817  0.15885229     0.79520
O128        O  0.07235709  0.33841617  0.12608352    -0.58810
O129        O  0.08838530  0.35064508  0.08381129    -0.51660
C130        C  0.08005020  0.33434493  0.10251921     0.71530
O131        O  0.04184924  0.36922755  0.19440758    -0.73370
O132        O  0.05053939  0.41004797  0.20984713    -0.53940
C133        C  0.03947102  0.38554671  0.21151235     0.77530
O134        O  0.02110651  0.36688717  0.06790509    -0.58520
O135        O  0.05682229  0.37033751  0.04624111    -0.51640
C136        C  0.03194947  0.36251261  0.04705339     0.74120
Zr137      Zr  0.03413060  0.39807808  0.10685674     2.54710
O138        O  0.48860260  0.36443100  0.10551981    -0.79080
O139        O  0.02359250  0.42083566  0.07440288    -0.92500
Zr140      Zr  0.06673567  0.37059028  0.15376057     2.64680
O141        O  0.02749717  0.32864660  0.15486064    -0.97450
O142        O  0.09047723  0.36014928  0.18646065    -0.79520
O143        O  0.04360917  0.39331879  0.15211669    -0.82870
O144        O  0.05528670  0.37315106  0.10791471    -2.17580
O145        O  0.11541099  0.46263321  0.05946853    -0.66260
O146        O  0.11157520  0.42354649  0.04361871    -0.50830
C147        C  0.11771078  0.44744988  0.04093100     0.72510
O148        O  0.14458961  0.46625156  0.19017614    -0.59170
O149        O  0.10666755  0.46213919  0.20683015    -0.51150
C150        C  0.13156531  0.47188101  0.20802699     0.74310
O151        O  0.15951748  0.42387953  0.11815213    -0.70570
O152        O  0.13771783  0.40011466  0.07800298    -0.49240
C153        C  0.15837102  0.41215060  0.09429028     0.75690
O154        O  0.09629569  0.49491596  0.13624912    -0.65900
O155        O  0.07732728  0.47851150  0.17612750    -0.53090
C156        C  0.08708238  0.49655811  0.15995656     0.74070
Zr157      Zr  0.10056712  0.46243553  0.10530324     2.77540
O158        O  0.14380639  0.50051545  0.10770119    -0.96640
O159        O  0.08110410  0.48130132  0.07770248    -0.77470
Zr160      Zr  0.13338221  0.43402507  0.15025069     2.70070
O161        O  0.17798049  0.46945274  0.15007380    -0.78710
O162        O  0.14655773  0.41233129  0.18146689    -0.97800
Zr163      Zr  0.07222023  0.43579637  0.17256864     2.21500
Zr164      Zr  0.09372861  0.39483003  0.08216016     2.11130
O165        O  0.12209892  0.43765493  0.10469685    -2.46480
O166        O  0.11198097  0.45865492  0.15006418    -0.78510
O167        O  0.07244284  0.42028682  0.08249247    -0.70700
O168        O  0.09518126  0.41239228  0.17554618    -2.31660
O169        O  0.06118383  0.44037708  0.12742522    -2.27870
O170        O  0.10508325  0.39194388  0.12870214    -0.72460
H171        H  0.04428411  0.35564053  0.09977806     0.79540
H172        H  0.09938348  0.41170956  0.19449923     0.80620
H173        H  0.13779935  0.44628623  0.09469673     0.82850
H174        H  0.05228096  0.45030183  0.12769995     0.80460
H175        H  0.08441570  0.36291590  0.20473636     0.43490
H176        H  0.14505563  0.39708728  0.17000452     0.42460
H177        H  0.17692553  0.48166127  0.13827786     0.42140
H178        H  0.15496807  0.49466832  0.09791042     0.40070
H179        H  0.07336302  0.46895453  0.06101523     0.43210
H180        H  0.03135321  0.43889448  0.08283472     0.37990
H181        H  0.48827785  0.35183277  0.11772285     0.44110
H182        H  0.02116560  0.32279780  0.13537156     0.40520
H183        H  0.14224624  0.01211285  0.09538753     0.45440
H184        H  0.00458455  0.41382542  0.07566294     0.44160
H185        H  0.03365473  0.31681951  0.16016882     0.44300
H186        H  0.16554344  0.42398729  0.18480413     0.44660
O187        O  0.14936864  0.11526755  0.32441888    -0.74210
O188        O  0.18815073  0.11832503  0.31255054    -0.53120
C189        C  0.16835138  0.12167192  0.30838325     0.79520
O190        O  0.17251858  0.13038027  0.46184423    -0.58810
O191        O  0.13688513  0.09145474  0.46853475    -0.51840
C192        C  0.15231363  0.11593897  0.47479013     0.71530
O193        O  0.23073896  0.15660222  0.39843692    -0.73370
O194        O  0.23568920  0.14085506  0.35583491    -0.53940
C195        C  0.24290741  0.15860577  0.37618830     0.77530
O196        O  0.09404556  0.07862317  0.38969323    -0.58520
O197        O  0.09339229  0.06195132  0.43030760    -0.51640
C198        C  0.08293132  0.06822060  0.41149472     0.74120
Zr199      Zr  0.13440115  0.09446296  0.36604345     2.54710
O200        O  0.13213610  0.13404217  0.37554844    -0.79080
O201        O  0.09757674  0.07561556  0.33264349    -0.92500
Zr202      Zr  0.19312761  0.12605040  0.42056426     2.64680
O203        O  0.19344068  0.16715210  0.42214363    -0.97450
O204        O  0.22765151  0.14216602  0.45641011    -0.79520
O205        O  0.18007825  0.12043440  0.37322696    -0.82870
O206        O  0.14743181  0.10200161  0.41295070    -2.17580
O207        O  0.10743779  0.00083040  0.38578488    -0.66260
O208        O  0.09321077  0.02207289  0.41476596    -0.50830
C209        C  0.08920177  0.00302595  0.39724915     0.72510
O210        O  0.23111836  0.06681784  0.38320188    -0.59170
O211        O  0.23476251  0.08928229  0.34605865    -0.51150
C212        C  0.24184704  0.07681319  0.36097294     0.74310
O213        O  0.17483359  0.03212893  0.45058649    -0.70570
O214        O  0.13726035  0.03261840  0.46083080    -0.49240
C215        C  0.15322225  0.02385091  0.46334584     0.75690
O216        O  0.17383969  0.03348751  0.32828478    -0.65900
O217        O  0.18901986  0.06855233  0.30580779    -0.53090
C218        C  0.17793256  0.04379933  0.30567203     0.74070
Zr219      Zr  0.14058963  0.03108054  0.35880027     2.77540
O220        O  0.13682072  0.48809193  0.35559104    -0.96640
O221        O  0.10686750  0.01728869  0.32224202    -0.77470
Zr222      Zr  0.19774495  0.06288274  0.41521883     2.70070
O223        O  0.21176346  0.03112041  0.41933835    -0.78710
O224        O  0.23188426  0.09059417  0.44997598    -0.97800
Zr225      Zr  0.19836799  0.09718384  0.34884022     2.21500
Zr226      Zr  0.13376580  0.06097090  0.42964459     2.11130
O227        O  0.15248580  0.03762417  0.40611573    -2.46480
O228        O  0.18579825  0.05669780  0.36734495    -0.78510
O229        O  0.12180806  0.05400258  0.38182119    -0.70700
O230        O  0.21183380  0.10326033  0.39701256    -2.31660
O231        O  0.15223502  0.07124930  0.34140667    -2.27870
O232        O  0.17969128  0.08611019  0.43948452    -0.72460
H233        H  0.13906470  0.11082494  0.42202273     0.79540
H234        H  0.23059529  0.11310833  0.39928090     0.80620
H235        H  0.14637859  0.02062743  0.41191553     0.82850
H236        H  0.14729365  0.06877907  0.32205276     0.80460
H237        H  0.24285939  0.14309387  0.44684588     0.43490
H238        H  0.22683137  0.08095260  0.46654329     0.42460
H239        H  0.19977068  0.01610912  0.40641594     0.42140
H240        H  0.15338573  0.49036270  0.34823742     0.40070
H241        H  0.11572220  0.02696282  0.30639869     0.43210
H242        H  0.10312187  0.06837903  0.31667267     0.37990
H243        H  0.15017217  0.14815725  0.37368914     0.44110
H244        H  0.17508189  0.16270155  0.42453958     0.40520
H245        H  0.13774427  0.48428735  0.37481136     0.45440
H246        H  0.09697480  0.09057354  0.32603984     0.44160
H247        H  0.20258250  0.17662760  0.43993541     0.44300
H248        H  0.24739913  0.08968176  0.44371118     0.44660
O249        O  0.03476942  0.17601452  0.20881058    -0.74210
O250        O  0.04328994  0.14582791  0.22473008    -0.53120
C251        C  0.03045375  0.15818852  0.22484075     0.79520
O252        O  0.02887992  0.14777441  0.08059715    -0.58810
O253        O  0.06654184  0.18039175  0.06610833    -0.51840
C254        C  0.04207791  0.16336142  0.06299510     0.71530
O255        O  0.00788551  0.11162327  0.15932766    -0.73370
O256        O  0.02843727  0.09837160  0.18681063    -0.53940
C257        C  0.00842622  0.09401260  0.17203961     0.77530
O258        O  0.07146983  0.23211164  0.14266295    -0.58520
O259        O  0.09220826  0.23064559  0.10342972    -0.51640
C260        C  0.08142259  0.24058319  0.11944244     0.74120
Zr261      Zr  0.06616384  0.19878553  0.17338407     2.54710
O262        O  0.03158957  0.20977964  0.17678679    -0.79080
O263        O  0.09036689  0.23430737  0.20886747    -0.92500
Zr264      Zr  0.03575401  0.13418713  0.12306774     2.64680
O265        O  0.49087237  0.12486504  0.11626309    -0.97450
O266        O  0.02421619  0.09445229  0.09369615    -0.79520
O267        O  0.04397716  0.15301921  0.16892272    -0.82870
O268        O  0.05719048  0.18004432  0.12674392    -2.17580
O269        O  0.15981447  0.23590586  0.14680679    -0.66260
O270        O  0.14097958  0.23030580  0.10392208    -0.50830
C271        C  0.15961386  0.24276901  0.12230490     0.72510
O272        O  0.09845679  0.10211198  0.15289415    -0.59170
O273        O  0.07482579  0.10025064  0.19060511    -0.51150
C274        C  0.08691136  0.09180243  0.17446610     0.74310
O275        O  0.12174725  0.14723469  0.08201051    -0.70570
O276        O  0.11746957  0.18023690  0.06707430    -0.49240
C277        C  0.12459580  0.16289263  0.06428903     0.75690
O278        O  0.14179012  0.17712548  0.21109154    -0.65900
O279        O  0.10305525  0.14610732  0.22587872    -0.53090
C280        C  0.12820702  0.15876962  0.22655785     0.74070
Zr281      Zr  0.13330765  0.20004260  0.17553445     2.77540
O282        O  0.17874979  0.21062684  0.17865046    -0.96640
O283        O  0.14332390  0.23427680  0.21234569    -0.77470
Zr284      Zr  0.10308214  0.13566571  0.12539950     2.70070
O285        O  0.14540940  0.13812018  0.12817869    -0.78710
O286        O  0.08330133  0.09549757  0.09510178    -0.97800
Zr287      Zr  0.07009377  0.13885595  0.19094278     2.21500
Zr288      Zr  0.09795077  0.19320428  0.10554971     2.11130
O289        O  0.12575805  0.18148300  0.12889701    -2.46480
O290        O  0.11132101  0.15423883  0.17113714    -0.78510
O291        O  0.10662682  0.21272804  0.15232939    -0.70700
O292        O  0.06187032  0.12015762  0.14437340    -2.31660
O293        O  0.09255228  0.18558829  0.19695194    -2.27870
O294        O  0.07589381  0.14729187  0.10182423    -0.72460
H295        H  0.04678930  0.18575144  0.11742322     0.79540
H296        H  0.05308531  0.10150493  0.14330125     0.80620
H297        H  0.14219492  0.18761938  0.12013118     0.82850
H298        H  0.09507860  0.19167621  0.21631681     0.80460
H299        H  0.02502000  0.08228030  0.10571547     0.43490
H300        H  0.07624397  0.09935284  0.07884996     0.42460
H301        H  0.15517303  0.15177939  0.14337144     0.42140
H302        H  0.18340296  0.20888399  0.15935762     0.40070
H303        H  0.14700077  0.24957140  0.20264111     0.43210
H304        H  0.07834828  0.23060581  0.22417828     0.37990
H305        H  0.01834537  0.19781443  0.16238578     0.44110
H306        H  0.49208556  0.14193638  0.11523063     0.40520
H307        H  0.18866832  0.22943681  0.18444526     0.45440
H308        H  0.09112006  0.24956769  0.20136607     0.44160
H309        H  0.48498651  0.11589034  0.09746723     0.44300
H310        H  0.09820280  0.09374873  0.08822214     0.44660
O311        O  0.32405177  0.46695898  0.18904147    -0.74210
O312        O  0.35979159  0.46512730  0.20378715    -0.53120
C313        C  0.34351234  0.47358037  0.20604428     0.79520
O314        O  0.26507851  0.34110922  0.12827332    -0.58810
O315        O  0.26181234  0.35162042  0.08486456    -0.51840
C316        C  0.25298476  0.33695743  0.10493934     0.71530
O317        O  0.32568677  0.37231577  0.19659227    -0.73370
O318        O  0.35984591  0.41276911  0.20781510    -0.53940
C319        C  0.34531612  0.38899416  0.21236486     0.77530
O320        O  0.26778526  0.42700698  0.11567927    -0.58520
O321        O  0.26385897  0.40058406  0.07694804    -0.51640
C322        C  0.25612326  0.41384031  0.09275241     0.74120
Zr323      Zr  0.30494913  0.43796161  0.14642431     2.54710
O324        O  0.26865912  0.42166565  0.17692796    -0.79080
O325        O  0.30345949  0.47733756  0.14034163    -0.92500
Zr326      Zr  0.30487204  0.37261613  0.15333203     2.64680
O327        O  0.27165009  0.36392859  0.18692280    -0.97450
O328        O  0.30116919  0.33011379  0.15325601    -0.79520
O329        O  0.31998428  0.41570891  0.17276780    -0.82870
O330        O  0.28900417  0.39458958  0.12767714    -2.17580
O331        O  0.34821600  0.45979830  0.05444912    -0.66260
O332        O  0.31240276  0.42080080  0.04032849    -0.50830
C333        C  0.33030686  0.44437889  0.03662593     0.72510
O334        O  0.40410112  0.41142864  0.13224065    -0.59170
O335        O  0.40519652  0.43400680  0.17294574    -0.51150
C336        C  0.41519377  0.42450901  0.15533319     0.74310
O337        O  0.34414152  0.36300284  0.06587439    -0.70570
O338        O  0.30906554  0.36375921  0.04756737    -0.49240
C339        C  0.32559231  0.35523151  0.04764592     0.75690
O340        O  0.40315728  0.49057506  0.12723452    -0.65900
O341        O  0.40473599  0.47913917  0.17011799    -0.53090
C342        C  0.41418487  0.49471976  0.15131676     0.74070
Zr343      Zr  0.36450987  0.45970704  0.09909355     2.77540
O344        O  0.40101583  0.47249416  0.06899607    -0.96640
O345        O  0.36487131  0.50066794  0.09858786    -0.77470
Zr346      Zr  0.36387292  0.39460664  0.10486532     2.70070
O347        O  0.39634371  0.40850417  0.06989803    -0.78710
O348        O  0.36994804  0.35830037  0.11379137    -0.97800
Zr349      Zr  0.36600953  0.43723529  0.16891270     2.21500
Zr350      Zr  0.30174748  0.39394424  0.08066877     2.11130
O351        O  0.34832963  0.41646350  0.07896077    -2.46480
O352        O  0.38068676  0.43789629  0.12336848    -0.78510
O353        O  0.31844905  0.43783772  0.10045765    -0.70700
O354        O  0.35059868  0.39357802  0.15047205    -2.31660
O355        O  0.35075453  0.46035840  0.14427282    -2.27870
O356        O  0.31791767  0.37223819  0.10714951    -0.72460
H357        H  0.27026486  0.38599146  0.12830951     0.79540
H358        H  0.35817979  0.38533331  0.16035379     0.80620
H359        H  0.35349450  0.41632918  0.06015032     0.82850
H360        H  0.35808395  0.47811993  0.15201839     0.80460
H361        H  0.31779306  0.33242059  0.14603805     0.43490
H362        H  0.35250103  0.34281292  0.11031700     0.42460
H363        H  0.40792033  0.42722374  0.07520301     0.42140
H364        H  0.39427614  0.45937038  0.05284159     0.40070
H365        H  0.34623822  0.49580043  0.09756270     0.43210
H366        H  0.32143830  0.49160434  0.14497125     0.37990
H367        H  0.27568027  0.41873237  0.19385692     0.44110
H368        H  0.25847692  0.36669236  0.17757625     0.40520
H369        H  0.40334696  0.48851999  0.06184287     0.45440
H370        H  0.29311691  0.47888104  0.15566248     0.44160
H371        H  0.26299033  0.34498286  0.18793551     0.44300
H372        H  0.38032010  0.35687962  0.09843319     0.44660
C373        C  0.47190834  0.06011403  0.14191262     0.24670
C374        C  0.48518012  0.06790590  0.16786005    -0.23430
C375        C  0.47585732  0.05066004  0.18838097     0.19580
C376        C  0.45280158  0.02667565  0.18330431     0.24620
C377        C  0.43921558  0.01933578  0.15728935    -0.23380
C378        C  0.44968343  0.03627973  0.13654860     0.19520
F379        F  0.43849478  0.03015692  0.11067984    -0.13340
F380        F  0.48055155  0.07552078  0.12107975    -0.15700
F381        F  0.44377244  0.01091096  0.20392455    -0.15700
F382        F  0.48850617  0.05721864  0.21346901    -0.13340
C383        C  0.19844107  0.26741014  0.09369297     0.24670
C384        C  0.18213690  0.26723712  0.11495771    -0.23430
C385        C  0.18728727  0.29083081  0.12917910     0.19580
C386        C  0.20903010  0.31402307  0.12330719     0.24620
C387        C  0.22639776  0.31417792  0.10333843    -0.23380
C388        C  0.22065062  0.29070571  0.08816096     0.19520
F389        F  0.23746875  0.29005369  0.06950619    -0.13340
F390        F  0.19371961  0.24483330  0.07946731    -0.15700
F391        F  0.21412951  0.33635544  0.13841903    -0.15700
F392        F  0.17145469  0.29134863  0.14918130    -0.13340
C393        C  0.13095940  0.12328009  0.24787194     0.24670
C394        C  0.14193837  0.14995188  0.24512989    -0.23430
C395        C  0.16548698  0.16716801  0.26021447     0.19580
C396        C  0.17632793  0.15797489  0.27929006     0.24620
C397        C  0.16440302  0.13134557  0.28269629    -0.23380
C398        C  0.14220452  0.11417777  0.26595564     0.19520
F399        F  0.12996150  0.08841106  0.26890334    -0.13340
F400        F  0.10865134  0.10574132  0.23360525    -0.15700
F401        F  0.19728281  0.17518682  0.29575316    -0.15700
F402        F  0.17696088  0.19298253  0.25798178    -0.13340
C403        C  0.16247927  0.14021198  0.02104532     0.24670
C404        C  0.14603141  0.12949732  0.49730735    -0.23430
C405        C  0.12590462  0.13522128  0.49340714     0.19580
C406        C  0.12096553  0.14980401  0.01414448     0.24620
C407        C  0.13597351  0.15856017  0.03899547    -0.23380
C408        C  0.15742900  0.15453134  0.04181457     0.19520
F409        F  0.17224352  0.16279065  0.06571053    -0.13340
F410        F  0.18279758  0.13592014  0.02453478    -0.15700
F411        F  0.10036779  0.15363016  0.01084855    -0.15700
F412        F  0.11099991  0.12655077  0.46958230    -0.13340
C413        C  0.15419001  0.47749521  0.01314255     0.24670
C414        C  0.12739860  0.45987287  0.01495891    -0.23430
C415        C  0.10967235  0.46240320  0.99805580     0.19580
C416        C  0.11819790  0.48277453  0.48112275     0.24620
C417        C  0.14488030  0.00135831  0.48040878    -0.23380
C418        C  0.16287623  0.49773116  0.49574854     0.19520
F419        F  0.18875506  0.01483192  0.49548471    -0.13340
F420        F  0.17183041  0.47644575  0.03003312    -0.15700
F421        F  0.10006799  0.48461803  0.46585797    -0.15700
F422        F  0.08367733  0.44647749  0.99994453    -0.13340
C423        C  0.13445997  0.48413872  0.25791578     0.24670
C424        C  0.14554056  0.49024710  0.23236963    -0.23430
C425        C  0.16833751  0.01426450  0.23060888     0.19580
C426        C  0.17926531  0.03217349  0.25422901     0.24620
C427        C  0.16780943  0.02591316  0.27986991    -0.23380
C428        C  0.14542358  0.00149389  0.28114861     0.19520
F429        F  0.13313552  0.99434461  0.30485258    -0.13340
F430        F  0.11264035  0.46109334  0.26050189    -0.15700
F431        F  0.20099360  0.05531283  0.25208741    -0.15700
F432        F  0.17939504  0.52071617  0.20598827    -0.13340
C433        C  0.06373698  0.04434599  0.17875423     0.24670
C434        C  0.08722189  0.06792320  0.17928207    -0.23430
C435        C  0.11084783  0.06764497  0.17691048     0.19580
C436        C  0.11086148  0.04426857  0.17161507     0.24620
C437        C  0.08729430  0.02081851  0.16902476    -0.23380
C438        C  0.06379551  0.02085921  0.17378731     0.19520
F439        F  0.04076963  0.49829024  0.17133065    -0.13340
F440        F  0.04064186  0.04409891  0.18018888    -0.15700
F441        F  0.13380875  0.04453750  0.16806766    -0.15700
F442        F  0.13381891  0.09021438  0.17783200    -0.13340
C443        C  0.05646803  0.28687009  0.10678554     0.24670
C444        C  0.07888031  0.30866959  0.09854047    -0.23430
C445        C  0.10148105  0.30675148  0.09442421     0.19580
C446        C  0.10207115  0.28419443  0.10003283     0.24620
C447        C  0.08021213  0.26334018  0.11048659    -0.23380
C448        C  0.05720662  0.26469344  0.11297289     0.19520
F449        F  0.03545502  0.24465864  0.12196441    -0.13340
F450        F  0.03409741  0.28771241  0.11055468    -0.15700
F451        F  0.12464141  0.28356048  0.09724811    -0.15700
F452        F  0.12364517  0.32748108  0.08740501    -0.13340
C453        C  0.20676899  0.43655101  0.09313414     0.24670
C454        C  0.18330034  0.41340781  0.08607681    -0.23430
C455        C  0.18462708  0.39130825  0.07569742     0.19580
C456        C  0.20872964  0.39165193  0.07553601     0.24620
C457        C  0.23183268  0.41426071  0.08536941    -0.23380
C458        C  0.23062749  0.43699939  0.09269806     0.19520
F459        F  0.25256988  0.45955434  0.10105223    -0.13340
F460        F  0.20650721  0.45865537  0.10194461    -0.15700
F461        F  0.20910581  0.36938531  0.06807793    -0.15700
F462        F  0.16250077  0.36890759  0.06779165    -0.13340
C463        C  0.47395766  0.42404246  0.18558626     0.24670
C464        C  0.48936753  0.42986580  0.16242828    -0.23430
C465        C  0.48211325  0.43799710  0.13945573     0.19580
C466        C  0.45863355  0.43782620  0.13832490     0.24620
C467        C  0.44193577  0.42979364  0.16027794    -0.23380
C468        C  0.45017073  0.42410295  0.18454522     0.19520
F469        F  0.43436425  0.41658816  0.20610846    -0.13340
F470        F  0.48083335  0.41637405  0.20804475    -0.15700
F471        F  0.45147083  0.44410784  0.11494530    -0.15700
F472        F  0.49708994  0.44445829  0.11711994    -0.13340
C473        C  0.02879337  0.14377848  0.01509523     0.24670
C474        C  0.02690917  0.15920448  0.03736895    -0.23430
C475        C  0.50449729  0.16184377  0.03885335     0.19580
C476        C  0.48384540  0.14828227  0.01913187     0.24620
C477        C  0.48502439  0.13134334  0.49803826    -0.23380
C478        C  0.00810949  0.13011808  0.49552084     0.19520
F479        F  0.01065632  0.11576488  0.47391142    -0.13340
F480        F  0.04965579  0.14004858  0.01369457    -0.15700
F481        F  0.46221130  0.15070593  0.02140085    -0.15700
F482        F  0.50184415  0.17601563  0.06065841    -0.13340
C483        C  0.48192033  0.15878375  0.27735456     0.24670
C484        C  0.46877729  0.13268754  0.28304422    -0.23430
C485        C  0.47437870  0.11513685  0.26764907     0.19580
C486        C  0.99387612  0.12355916  0.24856245     0.24620
C487        C  0.00828264  0.14986008  0.24379775    -0.23380
C488        C  0.50125647  0.16725324  0.25750156     0.19520
F489        F  0.51424233  0.19267383  0.25310098    -0.13340
F490        F  0.47735971  0.17631117  0.29228725    -0.15700
F491        F  0.99913337  0.10584458  0.23523783    -0.15700
F492        F  0.46228293  0.08986935  0.27281774    -0.13340
C493        C  0.36664020  0.48037601  0.97813618     0.24670
C494        C  0.35816121  0.99865476  0.47706778    -0.23430
C495        C  0.33565229  0.49427589  0.49122027     0.19580
C496        C  0.32353812  0.47359908  0.00796797     0.24620
C497        C  0.33301878  0.45623397  0.01028185    -0.23380
C498        C  0.35415242  0.45944738  0.99430068     0.19520
F499        F  0.36448289  0.44373248  0.99663343    -0.13340
F500        F  0.38752450  0.98305707  0.96397217    -0.15700
F501        F  0.30405739  0.47200045  0.02399919    -0.15700
F502        F  0.32648728  0.01111158  0.49050719    -0.13340
C503        C  0.34327323  0.49926648  0.27930875     0.24670
C504        C  0.35912824  0.02642313  0.27872513    -0.23430
C505        C  0.36776849  0.03601375  0.25299333     0.19580
C506        C  0.36183443  0.01885615  0.22896472     0.24620
C507        C  0.34735317  0.49192181  0.23027616    -0.23380
C508        C  0.33786351  0.48235909  0.25548656     0.19520
F509        F  0.32395710  0.45641504  0.25721928    -0.13340
F510        F  0.33358673  0.48868928  0.30316921    -0.15700
F511        F  0.37114755  0.02847497  0.20460626    -0.15700
F512        F  0.38295854  0.06181198  0.25120254    -0.13340
C513        C  0.04045517  0.05614066  0.38956793     0.24670
C514        C  0.05609069  0.06311056  0.41388635    -0.23430
C515        C  0.04680574  0.06797050  0.43899501     0.19580
C516        C  0.02338360  0.06859658  0.43911519     0.24620
C517        C  0.00973046  0.06510230  0.41405176    -0.23380
C518        C  0.01771324  0.05747187  0.38958017     0.19520
F519        F  0.00378935  0.05196088  0.36537812    -0.13340
F520        F  0.04788236  0.04922377  0.36536589    -0.15700
F521        F  0.01506045  0.07421014  0.46332142    -0.15700
F522        F  0.06120800  0.07396496  0.46290811    -0.13340
C523        C  0.28687900  0.09490624  0.34364353     0.24670
C524        C  0.26446813  0.07405663  0.35299096    -0.23430
C525        C  0.26511816  0.05164481  0.35853207     0.19580
C526        C  0.28846861  0.05125172  0.35797319     0.24620
C527        C  0.31163624  0.07335493  0.35210225    -0.23380
C528        C  0.31045217  0.09465176  0.34337394     0.19520
F529        F  0.33244161  0.11616623  0.33723298    -0.13340
F530        F  0.28658648  0.11644972  0.33725143    -0.15700
F531        F  0.28870570  0.02975362  0.36480848    -0.15700
F532        F  0.24337117  0.03056128  0.36595167    -0.13340
C533        C  0.47389905  0.34706378  0.50173906     0.24670
C534        C  0.46824504  0.32422930  0.48553675    -0.23430
C535        C  0.48498192  0.31381536  0.48872533     0.19580
C536        C  0.00661214  0.32603679  0.00810816     0.24620
C537        C  0.01297149  0.34997043  0.02279704    -0.23380
C538        C  0.99646250  0.36034315  0.01858587     0.19520
F539        F  0.00234286  0.38393817  0.03097662    -0.13340
F540        F  0.45900484  0.35833617  0.49872022    -0.15700
F541        F  0.02112031  0.31461818  0.01238189    -0.15700
F542        F  0.48076280  0.29230345  0.47258556    -0.13340
C543        C  0.49470571  0.36581487  0.22821374     0.24670
C544        C  0.02138690  0.37526418  0.23367363    -0.23430
C545        C  0.03052739  0.37609986  0.26047797     0.19580
C546        C  0.01306874  0.36754328  0.28171024     0.24620
C547        C  0.48644778  0.35858987  0.27635216    -0.23380
C548        C  0.47734819  0.35774633  0.24950742     0.19520
F549        F  0.45168453  0.34915325  0.24399935    -0.13340
F550        F  0.48562707  0.36503418  0.20236085    -0.15700
F551        F  0.02222239  0.36891572  0.30769084    -0.15700
F552        F  0.05632694  0.38554830  0.26608617    -0.13340
C553        C  0.39707799  0.43797028  0.38174479     0.24670
C554        C  0.41982297  0.43766226  0.37400800    -0.23430
C555        C  0.44418318  0.46012424  0.37841818     0.19580
C556        C  0.44568012  0.48275924  0.39082058     0.24620
C557        C  0.42291495  0.48266167  0.39917928    -0.23380
C558        C  0.39871647  0.46009825  0.39502751     0.19520
F559        F  0.37644743  0.46025267  0.40184327    -0.13340
F560        F  0.37336067  0.41627245  0.37761121    -0.15700
F561        F  0.46896513  0.00496604  0.39349453    -0.15700
F562        F  0.46637399  0.45979818  0.37179512    -0.13340
C563        C  0.40553137  0.21227243  0.35592832     0.24670
C564        C  0.40550534  0.22532478  0.38152978    -0.23430
C565        C  0.40371037  0.21363060  0.40579742     0.19580
C566        C  0.40381973  0.19033546  0.40473208     0.24620
C567        C  0.40609798  0.17837813  0.37937961    -0.23380
C568        C  0.40595431  0.18905404  0.35489972     0.19520
F569        F  0.40748689  0.17778014  0.33008122    -0.13340
F570        F  0.40571566  0.22220532  0.33180525    -0.15700
F571        F  0.40222159  0.17980521  0.42879573    -0.15700
F572        F  0.40318437  0.22527499  0.43080507    -0.13340
C573        C  0.03369254  0.44612732  0.35671098     0.24670
C574        C  0.01361531  0.44058668  0.37458487    -0.23430
C575        C  0.01723564  0.45720231  0.39838514     0.19580
C576        C  0.04169292  0.47836036  0.40551751     0.24620
C577        C  0.06267658  0.48261421  0.38901035    -0.23380
C578        C  0.05817939  0.46698011  0.36384682     0.19520
F579        F  0.07762625  0.47103434  0.34656162    -0.13340
F580        F  0.03024847  0.42988250  0.33382035    -0.15700
F581        F  0.04511467  0.49345397  0.42935175    -0.15700
F582        F  0.99748124  0.45172072  0.41569047    -0.13340
C583        C  0.31405071  0.20612204  0.36948228     0.24670
C584        C  0.31582174  0.22838283  0.38379583    -0.23430
C585        C  0.29342932  0.22827341  0.39327416     0.19580
C586        C  0.26938825  0.20584479  0.38916756     0.24620
C587        C  0.26743240  0.18309324  0.37553840    -0.23380
C588        C  0.28991275  0.18347894  0.36542220     0.19520
F589        F  0.28866916  0.16182235  0.35253057    -0.13340
F590        F  0.33563035  0.20648176  0.35925431    -0.15700
F591        F  0.24794476  0.20636385  0.39853124    -0.15700
F592        F  0.29483949  0.25015164  0.40594961    -0.13340
C593        C  0.32557469  0.32539671  0.47565035     0.24670
C594        C  0.34333777  0.31629932  0.47992818    -0.23430
C595        C  0.34843920  0.31334076  0.00701163     0.19580
C596        C  0.33928183  0.32285199  0.02925571     0.24620
C597        C  0.32561494  0.33645259  0.02492454    -0.23380
C598        C  0.31720070  0.33577280  0.49781952     0.19520
F599        F  0.30325619  0.34755614  0.49242731    -0.13340
F600        F  0.31871648  0.32702412  0.44962324    -0.15700
F601        F  0.34582453  0.32070393  0.05520225    -0.15700
F602        F  0.36471554  0.30405135  0.01214836    -0.13340
C603        C  0.33707682  0.35554470  0.24549190     0.24670
C604        C  0.35325950  0.38007964  0.23625173    -0.23430
C605        C  0.37855520  0.39538775  0.24848194     0.19580
C606        C  0.38761097  0.38635844  0.26875813     0.24620
C607        C  0.37169992  0.36167284  0.27781701    -0.23380
C608        C  0.34615706  0.34647535  0.26610000     0.19520
F609        F  0.32997420  0.32264790  0.27418261    -0.13340
F610        F  0.31248513  0.34015022  0.23452756    -0.15700
F611        F  0.41228355  0.40218114  0.27936553    -0.15700
F612        F  0.39526555  0.41906497  0.24034909    -0.13340
O613        O  0.36609894  0.33203636  0.81098302    -0.74210
O614        O  0.40618318  0.36661813  0.80675614    -0.53120
C615        C  0.38188675  0.35264646  0.79977228     0.79520
O616        O  0.36859724  0.33868195  0.94510262    -0.58810
O617        O  0.37020891  0.30227476  0.95232297    -0.51840
C618        C  0.36171145  0.31857462  0.95770247     0.71530
O619        O  0.40652503  0.39915666  0.89088948    -0.73370
O620        O  0.42975289  0.40678317  0.85200877    -0.53940
C621        C  0.41845666  0.41282588  0.87140990     0.77530
O622        O  0.34156274  0.26558786  0.86321992    -0.58520
O623        O  0.35607363  0.26068454  0.90475429    -0.51640
C624        C  0.33964518  0.25303944  0.88401259     0.74120
Zr625      Zr  0.36954954  0.30695307  0.84644116     2.54710
O626        O  0.32674385  0.30330696  0.84981127    -0.79080
O627        O  0.35627237  0.27604756  0.80559599    -0.92500
Zr628      Zr  0.39617204  0.35992589  0.90926378     2.64680
O629        O  0.35766675  0.36471047  0.90551469    -0.97450
O630        O  0.41362063  0.39126109  0.94975260    -0.79520
O631        O  0.39119922  0.35151727  0.86083825    -0.82870
O632        O  0.37314768  0.31539055  0.89528154    -2.17580
O633        O  0.42017708  0.26445214  0.86228211    -0.66260
O634        O  0.40162234  0.26018249  0.90410473    -0.50830
C635        C  0.40913965  0.25164546  0.88281470     0.72510
O636        O  0.49079672  0.40157171  0.89251930    -0.59170
O637        O  0.47523215  0.40708104  0.85223853    -0.51150
C638        C  0.49175584  0.41473477  0.87267532     0.74310
O639        O  0.46922248  0.33731634  0.94290091    -0.70570
O640        O  0.42919637  0.30612444  0.95473897    -0.49240
C641        C  0.45430820  0.32089263  0.95895873     0.75690
O642        O  0.46402729  0.33132499  0.81090170    -0.65900
O643        O  0.45879994  0.36622589  0.80560315    -0.53090
C644        C  0.46850215  0.35149355  0.79899247     0.74070
Zr645      Zr  0.43580053  0.30663914  0.84658803     2.77540
O646        O  0.47434009  0.30181752  0.84961124    -0.96640
O647        O  0.41858355  0.27668313  0.80506025    -0.77470
Zr648      Zr  0.46284641  0.36009949  0.90866898     2.70070
O649        O  0.50598881  0.36459856  0.90521834    -0.78710
O650        O  0.47665580  0.39189897  0.94876784    -0.97800
Zr651      Zr  0.43373135  0.36843383  0.84396941     2.21500
Zr652      Zr  0.39841076  0.29891553  0.91506172     2.11130
O653        O  0.44029195  0.31512489  0.89534380    -2.46480
O654        O  0.45945638  0.35141375  0.86033216    -0.78510
O655        O  0.39441102  0.29046561  0.86561569    -0.70700
O656        O  0.43824866  0.37784490  0.89262494    -2.31660
O657        O  0.41125256  0.32373014  0.82784064    -2.27870
O658        O  0.42154521  0.34401037  0.92879803    -0.72460
H659        H  0.35575057  0.30752146  0.90199401     0.79540
H660        H  0.44710357  0.39619926  0.89816545     0.80620
H661        H  0.44931837  0.30676106  0.90210472     0.82850
H662        H  0.41007268  0.32116842  0.80793929     0.80460
H663        H  0.42989845  0.40580691  0.94380989     0.43490
H664        H  0.46100576  0.38625725  0.95980991     0.42460
H665        H  0.00397628  0.35166324  0.88987160     0.42140
H666        H  0.47395389  0.29553013  0.86785711     0.40070
H667        H  0.39977797  0.26584435  0.80805271     0.43210
H668        H  0.36521411  0.28654547  0.79027940     0.37990
H669        H  0.33040230  0.32128289  0.85464846     0.44110
H670        H  0.34280962  0.34679905  0.90340117     0.40520
H671        H  0.47047566  0.28680578  0.83619711     0.45440
H672        H  0.33766186  0.27056277  0.80212339     0.44160
H673        H  0.35619704  0.37193240  0.92406710     0.44300
H674        H  0.48876736  0.38878808  0.95971798     0.44660
O675        O  0.41979678  0.15392936  0.90180594    -0.74210
O676        O  0.40311153  0.13949474  0.85761679    -0.53120
C677        C  0.40993667  0.15579010  0.87928892     0.79520
O678        O  0.48852784  0.08277021  0.89096336    -0.58810
O679        O  0.47157498  0.06434675  0.93056661    -0.51840
C680        C  0.48863478  0.07124843  0.91209987     0.71530
O681        O  0.46928001  0.11970863  0.82625282    -0.73370
O682        O  0.43231756  0.11998047  0.81306392    -0.53940
C683        C  0.45587708  0.12440641  0.80936293     0.77530
O684        O  0.45688659  0.13134958  0.96422224    -0.58520
O685        O  0.45557452  0.09304003  0.96979412    -0.51640
C686        C  0.46387290  0.11739667  0.97656749     0.74120
Zr687      Zr  0.43066741  0.12538844  0.92316207     2.54710
O688        O  0.46747007  0.16927488  0.92875488    -0.79080
O689        O  0.40761301  0.13521260  0.95947253    -0.92500
Zr690      Zr  0.46502963  0.10096205  0.86918554     2.64680
O691        O  0.50254633  0.14290715  0.88402903    -0.97450
O692        O  0.49241612  0.09237683  0.83755885    -0.79520
O693        O  0.44120459  0.12318720  0.87606479    -0.82870
O694        O  0.45598736  0.10488232  0.91566425    -2.17580
O695        O  0.35845063  0.02803088  0.94624931    -0.66260
O696        O  0.39741843  0.03225531  0.95982807    -0.50830
C697        C  0.37229445  0.02138803  0.96038885     0.72510
O698        O  0.36530870  0.03203466  0.82724190    -0.59170
O699        O  0.38251613  0.06831420  0.80634576    -0.51150
C700        C  0.36925027  0.04340512  0.80532185     0.74310
O701        O  0.41254649  0.00857708  0.87781983    -0.70570
O702        O  0.42947845  0.02201052  0.92204748    -0.49240
C703        C  0.42206261  0.00624772  0.90015625     0.75690
O704        O  0.33721842  0.06473793  0.88130207    -0.65900
O705        O  0.35653968  0.08843635  0.84510646    -0.53090
C706        C  0.33680171  0.07549799  0.85961313     0.74070
Zr707      Zr  0.36605572  0.05893347  0.91192295     2.77540
O708        O  0.32153710  0.02283583  0.90736248    -0.96640
O709        O  0.35299956  0.08082112  0.94764089    -0.77470
Zr710      Zr  0.39973244  0.03504043  0.85630113     2.70070
O711        O  0.36797561  0.48919496  0.84773537    -0.78710
O712        O  0.41838607  0.02672251  0.81466749    -0.97800
Zr713      Zr  0.40128129  0.09782484  0.84906313     2.21500
Zr714      Zr  0.42990890  0.06254246  0.93002515     2.11130
O715        O  0.38999869  0.03715769  0.90309889    -2.46480
O716        O  0.37526183  0.05589670  0.86471242    -0.78510
O717        O  0.40525796  0.08390807  0.93948564    -0.70700
O718        O  0.42606592  0.07630329  0.84143849    -2.31660
O719        O  0.39098130  0.10074942  0.89677577    -2.27870
O720        O  0.43923468  0.05898756  0.88261469    -0.72460
H721        H  0.47276499  0.11423068  0.92539680     0.79540
H722        H  0.42945077  0.07457361  0.82220554     0.80620
H723        H  0.38060746  0.01951602  0.90774665     0.82850
H724        H  0.38055448  0.10911301  0.89898682     0.80460
H725        H  0.48034573  0.07542414  0.82741790     0.43490
H726        H  0.42896338  0.01928815  0.82105033     0.42460
H727        H  0.35465316  0.98626109  0.86148970     0.42140
H728        H  0.32324272  0.00709072  0.90472925     0.40070
H729        H  0.35606808  0.07512724  0.96507677     0.43210
H730        H  0.39225664  0.13406199  0.94989188     0.37990
H731        H  0.48228686  0.16761482  0.92143951     0.44110
H732        H  0.51369563  0.13885369  0.89540931     0.40520
H733        H  0.31442397  0.02239705  0.92585430     0.45440
H734        H  0.41895177  0.15391201  0.96511620     0.44160
H735        H  0.01220637  0.14872662  0.86707290     0.44300
H736        H  0.40342694  0.01204505  0.80397308     0.44660
O737        O  0.00818290  0.40975846  0.63651365    -0.74210
O738        O  0.03050448  0.43462880  0.67579674    -0.53120
C739        C  0.01052563  0.42389842  0.65885226     0.79520
O740        O  0.07235708  0.33841616  0.62608352    -0.58810
O741        O  0.08838529  0.35064508  0.58381129    -0.51660
C742        C  0.08005019  0.33434493  0.60251921     0.71530
O743        O  0.04184927  0.36922755  0.69440760    -0.73370
O744        O  0.05053941  0.41004796  0.70984715    -0.53940
C745        C  0.03947104  0.38554670  0.71151237     0.77530
O746        O  0.02110657  0.36688755  0.56790485    -0.58520
O747        O  0.05682228  0.37033744  0.54624110    -0.51640
C748        C  0.03194950  0.36251274  0.54705328     0.74120
Zr749      Zr  0.03413055  0.39807806  0.60685684     2.54710
O750        O  0.48860271  0.36443072  0.60552028    -0.79080
O751        O  0.02359187  0.42083526  0.57440303    -0.92500
Zr752      Zr  0.06673568  0.37059028  0.65376057     2.64680
O753        O  0.02749719  0.32864660  0.65486065    -0.97450
O754        O  0.09047727  0.36014931  0.68646063    -0.79520
O755        O  0.04360918  0.39331879  0.65211676    -0.82870
O756        O  0.05528668  0.37315106  0.60791472    -2.17580
O757        O  0.11541095  0.46263319  0.55946851    -0.66260
O758        O  0.11157515  0.42354647  0.54361870    -0.50830
C759        C  0.11771073  0.44744985  0.54093098     0.72510
O760        O  0.14458961  0.46625158  0.69017612    -0.59170
O761        O  0.10666756  0.46213920  0.70683018    -0.51150
C762        C  0.13156531  0.47188102  0.70802699     0.74310
O763        O  0.15951747  0.42387954  0.61815212    -0.70570
O764        O  0.13771781  0.40011465  0.57800298    -0.49240
C765        C  0.15837101  0.41215060  0.59429027     0.75690
O766        O  0.09629568  0.49491595  0.63624910    -0.65900
O767        O  0.07732728  0.47851150  0.67612749    -0.53090
C768        C  0.08708236  0.49655810  0.65995654     0.74070
Zr769      Zr  0.10056709  0.46243551  0.60530322     2.77540
O770        O  0.14380634  0.50051547  0.60770112    -0.96640
O771        O  0.08110393  0.48130114  0.57770244    -0.77470
Zr772      Zr  0.13338221  0.43402508  0.65025067     2.70070
O773        O  0.17798048  0.46945277  0.65007374    -0.78710
O774        O  0.14655776  0.41233133  0.68146688    -0.97800
Zr775      Zr  0.07222023  0.43579638  0.67256866     2.21500
Zr776      Zr  0.09372858  0.39483002  0.58216016     2.11130
O777        O  0.12209890  0.43765492  0.60469683    -2.46480
O778        O  0.11198096  0.45865492  0.65006417    -0.78510
O779        O  0.07244278  0.42028678  0.58249253    -0.70700
O780        O  0.09518127  0.41239228  0.67554618    -2.31660
O781        O  0.06118383  0.44037707  0.62742525    -2.27870
O782        O  0.10508325  0.39194388  0.62870213    -0.72460
H783        H  0.04428405  0.35564056  0.59977803     0.79540
H784        H  0.09938350  0.41170957  0.69449922     0.80620
H785        H  0.13779932  0.44628622  0.59469670     0.82850
H786        H  0.05228098  0.45030184  0.62769995     0.80460
H787        H  0.08441574  0.36291592  0.70473635     0.43490
H788        H  0.14505567  0.39708733  0.67000451     0.42460
H789        H  0.17692550  0.48166129  0.63827781     0.42140
H790        H  0.15496803  0.49466833  0.59791039     0.40070
H791        H  0.07336268  0.46895422  0.56101532     0.43210
H792        H  0.03135267  0.43889414  0.58283472     0.37990
H793        H  0.48827820  0.35183260  0.61772331     0.44110
H794        H  0.02116561  0.32279780  0.63537157     0.40520
H795        H  0.14224622  0.01211283  0.59538748     0.45440
H796        H  0.00458394  0.41382502  0.57566339     0.44160
H797        H  0.03365475  0.31681951  0.66016882     0.44300
H798        H  0.16554347  0.42398735  0.68480411     0.44660
O799        O  0.14936864  0.11526754  0.82441887    -0.74210
O800        O  0.18815074  0.11832503  0.81255054    -0.53120
C801        C  0.16835138  0.12167192  0.80838324     0.79520
O802        O  0.17251858  0.13038028  0.96184422    -0.58810
O803        O  0.13688513  0.09145474  0.96853475    -0.51840
C804        C  0.15231362  0.11593897  0.97479012     0.71530
O805        O  0.23073895  0.15660222  0.89843692    -0.73370
O806        O  0.23568920  0.14085506  0.85583491    -0.53940
C807        C  0.24290741  0.15860577  0.87618830     0.77530
O808        O  0.09404555  0.07862316  0.88969323    -0.58520
O809        O  0.09339228  0.06195132  0.93030759    -0.51640
C810        C  0.08293132  0.06822059  0.91149471     0.74120
Zr811      Zr  0.13440115  0.09446296  0.86604344     2.54710
O812        O  0.13213609  0.13404216  0.87554843    -0.79080
O813        O  0.09757674  0.07561555  0.83264348    -0.92500
Zr814      Zr  0.19312761  0.12605040  0.92056425     2.64680
O815        O  0.19344067  0.16715210  0.92214362    -0.97450
O816        O  0.22765151  0.14216603  0.95641010    -0.79520
O817        O  0.18007825  0.12043440  0.87322695    -0.82870
O818        O  0.14743181  0.10200161  0.91295070    -2.17580
O819        O  0.10743780  0.00083040  0.88578488    -0.66260
O820        O  0.09321078  0.02207289  0.91476596    -0.50830
C821        C  0.08920178  0.00302594  0.89724915     0.72510
O822        O  0.23111836  0.06681784  0.88320188    -0.59170
O823        O  0.23476251  0.08928229  0.84605865    -0.51150
C824        C  0.24184704  0.07681319  0.86097294     0.74310
O825        O  0.17483360  0.03212894  0.95058650    -0.70570
O826        O  0.13726035  0.03261841  0.96083081    -0.49240
C827        C  0.15322226  0.02385093  0.96334584     0.75690
O828        O  0.17383969  0.03348752  0.82828478    -0.65900
O829        O  0.18901987  0.06855233  0.80580779    -0.53090
C830        C  0.17793257  0.04379934  0.80567203     0.74070
Zr831      Zr  0.14058963  0.03108054  0.85880028     2.77540
O832        O  0.13682090  0.48809196  0.85559120    -0.96640
O833        O  0.10686750  0.01728868  0.82224202    -0.77470
Zr834      Zr  0.19774495  0.06288275  0.91521884     2.70070
O835        O  0.21176346  0.03112042  0.91933836    -0.78710
O836        O  0.23188427  0.09059418  0.94997598    -0.97800
Zr837      Zr  0.19836799  0.09718384  0.84884021     2.21500
Zr838      Zr  0.13376580  0.06097090  0.92964459     2.11130
O839        O  0.15248581  0.03762417  0.90611573    -2.46480
O840        O  0.18579825  0.05669781  0.86734496    -0.78510
O841        O  0.12180806  0.05400258  0.88182119    -0.70700
O842        O  0.21183380  0.10326034  0.89701256    -2.31660
O843        O  0.15223502  0.07124930  0.84140667    -2.27870
O844        O  0.17969129  0.08611019  0.93948452    -0.72460
H845        H  0.13906469  0.11082494  0.92202272     0.79540
H846        H  0.23059529  0.11310834  0.89928090     0.80620
H847        H  0.14637860  0.02062744  0.91191553     0.82850
H848        H  0.14729365  0.06877906  0.82205276     0.80460
H849        H  0.24285938  0.14309388  0.94684588     0.43490
H850        H  0.22683138  0.08095262  0.96654329     0.42460
H851        H  0.19977069  0.01610913  0.90641595     0.42140
H852        H  0.15338597  0.49036278  0.84823769     0.40070
H853        H  0.11572220  0.02696282  0.80639870     0.43210
H854        H  0.10312188  0.06837902  0.81667267     0.37990
H855        H  0.15017216  0.14815724  0.87368912     0.44110
H856        H  0.17508188  0.16270155  0.92453957     0.40520
H857        H  0.13774438  0.48428739  0.87481154     0.45440
H858        H  0.09697480  0.09057353  0.82603983     0.44160
H859        H  0.20258249  0.17662761  0.93993540     0.44300
H860        H  0.24739914  0.08968178  0.94371118     0.44660
O861        O  0.03476943  0.17601452  0.70881058    -0.74210
O862        O  0.04328994  0.14582791  0.72473008    -0.53120
C863        C  0.03045375  0.15818852  0.72484075     0.79520
O864        O  0.02887993  0.14777441  0.58059715    -0.58810
O865        O  0.06654185  0.18039175  0.56610833    -0.51840
C866        C  0.04207791  0.16336141  0.56299510     0.71530
O867        O  0.00788552  0.11162327  0.65932766    -0.73370
O868        O  0.02843727  0.09837160  0.68681064    -0.53940
C869        C  0.00842623  0.09401259  0.67203961     0.77530
O870        O  0.07146984  0.23211164  0.64266295    -0.58520
O871        O  0.09220827  0.23064559  0.60342972    -0.51640
C872        C  0.08142260  0.24058318  0.61944244     0.74120
Zr873      Zr  0.06616384  0.19878553  0.67338406     2.54710
O874        O  0.03158956  0.20977962  0.67678678    -0.79080
O875        O  0.09036688  0.23430737  0.70886747    -0.92500
Zr876      Zr  0.03575402  0.13418712  0.62306774     2.64680
O877        O  0.49087237  0.12486504  0.61626309    -0.97450
O878        O  0.02421620  0.09445228  0.59369615    -0.79520
O879        O  0.04397716  0.15301920  0.66892272    -0.82870
O880        O  0.05719048  0.18004431  0.62674392    -2.17580
O881        O  0.15981448  0.23590586  0.64680679    -0.66260
O882        O  0.14097959  0.23030580  0.60392208    -0.50830
C883        C  0.15961387  0.24276901  0.62230490     0.72510
O884        O  0.09845679  0.10211198  0.65289414    -0.59170
O885        O  0.07482579  0.10025064  0.69060511    -0.51150
C886        C  0.08691137  0.09180243  0.67446610     0.74310
O887        O  0.12174726  0.14723470  0.58201051    -0.70570
O888        O  0.11746957  0.18023690  0.56707430    -0.49240
C889        C  0.12459581  0.16289263  0.56428903     0.75690
O890        O  0.14179013  0.17712547  0.71109154    -0.65900
O891        O  0.10305525  0.14610732  0.72587872    -0.53090
C892        C  0.12820702  0.15876962  0.72655785     0.74070
Zr893      Zr  0.13330765  0.20004260  0.67553445     2.77540
O894        O  0.17874979  0.21062685  0.67865047    -0.96640
O895        O  0.14332389  0.23427679  0.71234569    -0.77470
Zr896      Zr  0.10308215  0.13566571  0.62539950     2.70070
O897        O  0.14540941  0.13812018  0.62817870    -0.78710
O898        O  0.08330134  0.09549757  0.59510177    -0.97800
Zr899      Zr  0.07009377  0.13885595  0.69094278     2.21500
Zr900      Zr  0.09795077  0.19320427  0.60554971     2.11130
O901        O  0.12575806  0.18148300  0.62889701    -2.46480
O902        O  0.11132101  0.15423883  0.67113714    -0.78510
O903        O  0.10662682  0.21272804  0.65232939    -0.70700
O904        O  0.06187032  0.12015762  0.64437340    -2.31660
O905        O  0.09255228  0.18558828  0.69695194    -2.27870
O906        O  0.07589382  0.14729187  0.60182423    -0.72460
H907        H  0.04678931  0.18575144  0.61742322     0.79540
H908        H  0.05308532  0.10150493  0.64330125     0.80620
H909        H  0.14219493  0.18761938  0.62013118     0.82850
H910        H  0.09507860  0.19167621  0.71631681     0.80460
H911        H  0.02502001  0.08228029  0.60571548     0.43490
H912        H  0.07624398  0.09935284  0.57884996     0.42460
H913        H  0.15517304  0.15177940  0.64337145     0.42140
H914        H  0.18340297  0.20888399  0.65935764     0.40070
H915        H  0.14700077  0.24957140  0.70264111     0.43210
H916        H  0.07834828  0.23060580  0.72417829     0.37990
H917        H  0.01834536  0.19781441  0.66238577     0.44110
H918        H  0.49208556  0.14193637  0.61523062     0.40520
H919        H  0.18866832  0.22943682  0.68444527     0.45440
H920        H  0.09112004  0.24956768  0.70136607     0.44160
H921        H  0.48498651  0.11589033  0.59746723     0.44300
H922        H  0.09820282  0.09374874  0.58822214     0.44660
O923        O  0.32405174  0.46695897  0.68904147    -0.74210
O924        O  0.35979157  0.46512730  0.70378716    -0.53120
C925        C  0.34351231  0.47358037  0.70604428     0.79520
O926        O  0.26507852  0.34110922  0.62827332    -0.58810
O927        O  0.26181235  0.35162042  0.58486456    -0.51840
C928        C  0.25298477  0.33695743  0.60493934     0.71530
O929        O  0.32568678  0.37231577  0.69659228    -0.73370
O930        O  0.35984590  0.41276912  0.70781512    -0.53940
C931        C  0.34531611  0.38899417  0.71236487     0.77530
O932        O  0.26778525  0.42700697  0.61567927    -0.58520
O933        O  0.26385897  0.40058406  0.57694804    -0.51640
C934        C  0.25612325  0.41384030  0.59275240     0.74120
Zr935      Zr  0.30494912  0.43796160  0.64642431     2.54710
O936        O  0.26865910  0.42166564  0.67692795    -0.79080
O937        O  0.30345947  0.47733754  0.64034162    -0.92500
Zr938      Zr  0.30487205  0.37261613  0.65333204     2.64680
O939        O  0.27165009  0.36392858  0.68692280    -0.97450
O940        O  0.30116920  0.33011379  0.65325600    -0.79520
O941        O  0.31998426  0.41570890  0.67276781    -0.82870
O942        O  0.28900417  0.39458957  0.62767714    -2.17580
O943        O  0.34821600  0.45979831  0.55444913    -0.66260
O944        O  0.31240277  0.42080080  0.54032849    -0.50830
C945        C  0.33030687  0.44437889  0.53662594     0.72510
O946        O  0.40410118  0.41142871  0.63224066    -0.59170
O947        O  0.40519650  0.43400681  0.67294578    -0.51150
C948        C  0.41519379  0.42450906  0.65533322     0.74310
O949        O  0.34414157  0.36300287  0.56587440    -0.70570
O950        O  0.30906557  0.36375922  0.54756738    -0.49240
C951        C  0.32559234  0.35523153  0.54764593     0.75690
O952        O  0.40315728  0.49057506  0.62723453    -0.65900
O953        O  0.40473598  0.47913917  0.67011801    -0.53090
C954        C  0.41418486  0.49471976  0.65131678     0.74070
Zr955      Zr  0.36450986  0.45970704  0.59909356     2.77540
O956        O  0.40101583  0.47249417  0.56899609    -0.96640
O957        O  0.36487131  0.50066795  0.59858787    -0.77470
Zr958      Zr  0.36387295  0.39460667  0.60486535     2.70070
O959        O  0.39634374  0.40850418  0.56989806    -0.78710
O960        O  0.36994806  0.35830039  0.61379142    -0.97800
Zr961      Zr  0.36600952  0.43723530  0.66891272     2.21500
Zr962      Zr  0.30174749  0.39394424  0.58066877     2.11130
O963        O  0.34832964  0.41646351  0.57896078    -2.46480
O964        O  0.38068677  0.43789630  0.62336850    -0.78510
O965        O  0.31844905  0.43783772  0.60045766    -0.70700
O966        O  0.35059869  0.39357803  0.65047206    -2.31660
O967        O  0.35075452  0.46035840  0.64427283    -2.27870
O968        O  0.31791769  0.37223820  0.60714952    -0.72460
H969        H  0.27026486  0.38599145  0.62830951     0.79540
H970        H  0.35817980  0.38533332  0.66035380     0.80620
H971        H  0.35349451  0.41632919  0.56015034     0.82850
H972        H  0.35808394  0.47811993  0.65201840     0.80460
H973        H  0.31779311  0.33242062  0.64603814     0.43490
H974        H  0.35250104  0.34281294  0.61031703     0.42460
H975        H  0.40792039  0.42722375  0.57520306     0.42140
H976        H  0.39427615  0.45937038  0.55284162     0.40070
H977        H  0.34623822  0.49580043  0.59756271     0.43210
H978        H  0.32143828  0.49160433  0.64497125     0.37990
H979        H  0.27568025  0.41873236  0.69385692     0.44110
H980        H  0.25847692  0.36669235  0.67757625     0.40520
H981        H  0.40334695  0.48851999  0.56184287     0.45440
H982        H  0.29311689  0.47888103  0.65566248     0.44160
H983        H  0.26299033  0.34498285  0.68793551     0.44300
H984        H  0.38032012  0.35687964  0.59843326     0.44660
C985        C  0.47190834  0.06011403  0.64191264     0.24670
C986        C  0.48518012  0.06790590  0.66786006    -0.23430
C987        C  0.47585732  0.05066004  0.68838099     0.19580
C988        C  0.45280157  0.02667566  0.68330433     0.24620
C989        C  0.43921557  0.01933579  0.65728938    -0.23380
C990        C  0.44968342  0.03627973  0.63654862     0.19520
F991        F  0.43849477  0.03015692  0.61067986    -0.13340
F992        F  0.48055155  0.07552077  0.62107976    -0.15700
F993        F  0.44377243  0.01091098  0.70392457    -0.15700
F994        F  0.48850617  0.05721865  0.71346902    -0.13340
C995        C  0.19844108  0.26741014  0.59369297     0.24670
C996        C  0.18213691  0.26723712  0.61495771    -0.23430
C997        C  0.18728727  0.29083081  0.62917909     0.19580
C998        C  0.20903011  0.31402307  0.62330718     0.24620
C999        C  0.22639777  0.31417792  0.60333843    -0.23380
C1000       C  0.22065063  0.29070570  0.58816096     0.19520
F1001       F  0.23746876  0.29005368  0.56950620    -0.13340
F1002       F  0.19371962  0.24483330  0.57946733    -0.15700
F1003       F  0.21412951  0.33635544  0.63841902    -0.15700
F1004       F  0.17145469  0.29134863  0.64918129    -0.13340
C1005       C  0.13095940  0.12328008  0.74787193     0.24670
C1006       C  0.14193837  0.14995187  0.74512988    -0.23430
C1007       C  0.16548698  0.16716801  0.76021447     0.19580
C1008       C  0.17632794  0.15797489  0.77929006     0.24620
C1009       C  0.16440302  0.13134556  0.78269629    -0.23380
C1010       C  0.14220453  0.11417776  0.76595563     0.19520
F1011       F  0.12996151  0.08841105  0.76890334    -0.13340
F1012       F  0.10865135  0.10574132  0.73360524    -0.15700
F1013       F  0.19728281  0.17518682  0.79575316    -0.15700
F1014       F  0.17696088  0.19298253  0.75798178    -0.13340
C1015       C  0.16247928  0.14021198  0.52104533     0.24670
C1016       C  0.14603140  0.12949732  0.99730734    -0.23430
C1017       C  0.12590461  0.13522128  0.99340713     0.19580
C1018       C  0.12096553  0.14980400  0.51414448     0.24620
C1019       C  0.13597352  0.15856017  0.53899547    -0.23380
C1020       C  0.15742901  0.15453134  0.54181457     0.19520
F1021       F  0.17224353  0.16279066  0.56571053    -0.13340
F1022       F  0.18279759  0.13592014  0.52453478    -0.15700
F1023       F  0.10036779  0.15363015  0.51084855    -0.15700
F1024       F  0.11099991  0.12655078  0.96958230    -0.13340
C1025       C  0.15418997  0.47749517  0.51314253     0.24670
C1026       C  0.12739856  0.45987284  0.51495889    -0.23430
C1027       C  0.10967232  0.46240318  0.49805578     0.19580
C1028       C  0.11819793  0.48277456  0.98112278     0.24620
C1029       C  0.14488031  0.00135832  0.98040879    -0.23380
C1030       C  0.16287626  0.49773119  0.99574857     0.19520
F1031       F  0.18875507  0.01483194  0.99548471    -0.13340
F1032       F  0.17183037  0.47644572  0.53003309    -0.15700
F1033       F  0.10006802  0.48461805  0.96585801    -0.15700
F1034       F  0.08367729  0.44647746  0.49994451    -0.13340
C1035       C  0.13446010  0.48413864  0.75791580     0.24670
C1036       C  0.14554058  0.49024710  0.73236962    -0.23430
C1037       C  0.16833752  0.01426450  0.73060888     0.19580
C1038       C  0.17926532  0.03217349  0.75422901     0.24620
C1039       C  0.16780944  0.02591316  0.77986991    -0.23380
C1040       C  0.14542360  0.00149389  0.78114862     0.19520
F1041       F  0.13313553  0.99434461  0.80485258    -0.13340
F1042       F  0.11264056  0.46109319  0.76050193    -0.15700
F1043       F  0.20099360  0.05531283  0.75208740    -0.15700
F1044       F  0.17939485  0.52071633  0.70598819    -0.13340
C1045       C  0.06373698  0.04434598  0.67875421     0.24670
C1046       C  0.08722189  0.06792320  0.67928206    -0.23430
C1047       C  0.11084784  0.06764497  0.67691047     0.19580
C1048       C  0.11086148  0.04426857  0.67161506     0.24620
C1049       C  0.08729430  0.02081851  0.66902474    -0.23380
C1050       C  0.06379551  0.02085921  0.67378728     0.19520
F1051       F  0.04076960  0.49829023  0.67133057    -0.13340
F1052       F  0.04064186  0.04409891  0.68018885    -0.15700
F1053       F  0.13380875  0.04453750  0.66806765    -0.15700
F1054       F  0.13381891  0.09021438  0.67783200    -0.13340
C1055       C  0.05646803  0.28687008  0.60678554     0.24670
C1056       C  0.07888032  0.30866959  0.59854047    -0.23430
C1057       C  0.10148106  0.30675148  0.59442422     0.19580
C1058       C  0.10207115  0.28419444  0.60003284     0.24620
C1059       C  0.08021214  0.26334017  0.61048659    -0.23380
C1060       C  0.05720662  0.26469344  0.61297288     0.19520
F1061       F  0.03545502  0.24465863  0.62196439    -0.13340
F1062       F  0.03409741  0.28771240  0.61055466    -0.15700
F1063       F  0.12464142  0.28356049  0.59724813    -0.15700
F1064       F  0.12364518  0.32748108  0.58740503    -0.13340
C1065       C  0.20676898  0.43655100  0.59313413     0.24670
C1066       C  0.18330033  0.41340780  0.58607680    -0.23430
C1067       C  0.18462707  0.39130824  0.57569741     0.19580
C1068       C  0.20872963  0.39165192  0.57553600     0.24620
C1069       C  0.23183267  0.41426070  0.58536939    -0.23380
C1070       C  0.23062748  0.43699938  0.59269805     0.19520
F1071       F  0.25256987  0.45955434  0.60105221    -0.13340
F1072       F  0.20650721  0.45865536  0.60194460    -0.15700
F1073       F  0.20910581  0.36938530  0.56807793    -0.15700
F1074       F  0.16250076  0.36890758  0.56779163    -0.13340
C1075       C  0.47395762  0.42404239  0.68558624     0.24670
C1076       C  0.48936759  0.42986596  0.66242835    -0.23430
C1077       C  0.48211338  0.43799744  0.63945589     0.19580
C1078       C  0.45863367  0.43782650  0.63832506     0.24620
C1079       C  0.44193580  0.42979372  0.66027800    -0.23380
C1080       C  0.45017067  0.42410284  0.68454521     0.19520
F1081       F  0.43436409  0.41658782  0.70610835    -0.13340
F1082       F  0.48083322  0.41637377  0.70804463    -0.15700
F1083       F  0.45147100  0.44410830  0.61494554    -0.15700
F1084       F  0.49709017  0.44445883  0.61712018    -0.13340
C1085       C  0.02879337  0.14377848  0.51509523     0.24670
C1086       C  0.02690917  0.15920447  0.53736895    -0.23430
C1087       C  0.50449729  0.16184377  0.53885335     0.19580
C1088       C  0.48384540  0.14828227  0.51913186     0.24620
C1089       C  0.48502439  0.13134334  0.99803826    -0.23380
C1090       C  0.00810949  0.13011808  0.99552084     0.19520
F1091       F  0.01065632  0.11576488  0.97391143    -0.13340
F1092       F  0.04965579  0.14004857  0.51369456    -0.15700
F1093       F  0.46221130  0.15070593  0.52140085    -0.15700
F1094       F  0.50184415  0.17601562  0.56065841    -0.13340
C1095       C  0.48192034  0.15878376  0.77735456     0.24670
C1096       C  0.46877729  0.13268755  0.78304423    -0.23430
C1097       C  0.47437869  0.11513685  0.76764907     0.19580
C1098       C  0.99387611  0.12355916  0.74856245     0.24620
C1099       C  0.00828264  0.14986008  0.74379775    -0.23380
C1100       C  0.50125648  0.16725325  0.75750157     0.19520
F1101       F  0.51424235  0.19267384  0.75310100    -0.13340
F1102       F  0.47735973  0.17631119  0.79228727    -0.15700
F1103       F  0.99913336  0.10584457  0.73523782    -0.15700
F1104       F  0.46228291  0.08986935  0.77281773    -0.13340
C1105       C  0.36664020  0.48037601  0.47813619     0.24670
C1106       C  0.35816121  0.99865476  0.97706777    -0.23430
C1107       C  0.33565229  0.49427589  0.99122027     0.19580
C1108       C  0.32353812  0.47359908  0.50796797     0.24620
C1109       C  0.33301878  0.45623397  0.51028186    -0.23380
C1110       C  0.35415243  0.45944738  0.49430069     0.19520
F1111       F  0.36448290  0.44373249  0.49663344    -0.13340
F1112       F  0.38752451  0.98305708  0.46397219    -0.15700
F1113       F  0.30405739  0.47200045  0.52399920    -0.15700
F1114       F  0.32648729  0.01111160  0.99050720    -0.13340
C1115       C  0.34327322  0.49926648  0.77930876     0.24670
C1116       C  0.35912821  0.02642314  0.77872513    -0.23430
C1117       C  0.36776845  0.03601375  0.75299334     0.19580
C1118       C  0.36183439  0.01885615  0.72896473     0.24620
C1119       C  0.34735314  0.49192181  0.73027616    -0.23380
C1120       C  0.33786349  0.48235909  0.75548656     0.19520
F1121       F  0.32395709  0.45641503  0.75721929    -0.13340
F1122       F  0.33358673  0.48868928  0.80316922    -0.15700
F1123       F  0.37114752  0.02847497  0.70460627    -0.15700
F1124       F  0.38295853  0.06181198  0.75120254    -0.13340
C1125       C  0.04045516  0.05614066  0.88956792     0.24670
C1126       C  0.05609069  0.06311056  0.91388635    -0.23430
C1127       C  0.04680573  0.06797050  0.93899500     0.19580
C1128       C  0.02338360  0.06859658  0.93911518     0.24620
C1129       C  0.00973046  0.06510230  0.91405175    -0.23380
C1130       C  0.01771323  0.05747187  0.88958016     0.19520
F1131       F  0.00378935  0.05196088  0.86537812    -0.13340
F1132       F  0.04788236  0.04922376  0.86536588    -0.15700
F1133       F  0.01506044  0.07421014  0.96332141    -0.15700
F1134       F  0.06120799  0.07396495  0.96290811    -0.13340
C1135       C  0.28687900  0.09490624  0.84364353     0.24670
C1136       C  0.26446814  0.07405664  0.85299096    -0.23430
C1137       C  0.26511816  0.05164481  0.85853207     0.19580
C1138       C  0.28846861  0.05125172  0.85797319     0.24620
C1139       C  0.31163624  0.07335494  0.85210225    -0.23380
C1140       C  0.31045217  0.09465176  0.84337394     0.19520
F1141       F  0.33244161  0.11616624  0.83723298    -0.13340
F1142       F  0.28658648  0.11644972  0.83725143    -0.15700
F1143       F  0.28870571  0.02975362  0.86480848    -0.15700
F1144       F  0.24337117  0.03056129  0.86595167    -0.13340
C1145       C  0.47389907  0.34706380  0.00173911     0.24670
C1146       C  0.46824504  0.32422932  0.98553679    -0.23430
C1147       C  0.48498189  0.31381535  0.98872535     0.19580
C1148       C  0.00661216  0.32603682  0.50810813     0.24620
C1149       C  0.01297152  0.34997050  0.52279693    -0.23380
C1150       C  0.99646254  0.36034321  0.51858568     0.19520
F1151       F  0.00234292  0.38393828  0.53097628    -0.13340
F1152       F  0.45900489  0.35833622  0.99872028    -0.15700
F1153       F  0.02112034  0.31461823  0.51238192    -0.15700
F1154       F  0.48076276  0.29230344  0.97258557    -0.13340
C1155       C  0.49470572  0.36581482  0.72821374     0.24670
C1156       C  0.02138693  0.37526417  0.73367365    -0.23430
C1157       C  0.03052741  0.37609984  0.76047799     0.19580
C1158       C  0.01306876  0.36754327  0.78171025     0.24620
C1159       C  0.48644779  0.35858986  0.77635218    -0.23380
C1160       C  0.47734820  0.35774627  0.74950742     0.19520
F1161       F  0.45168453  0.34915315  0.74399934    -0.13340
F1162       F  0.48562707  0.36503407  0.70236084    -0.15700
F1163       F  0.02222240  0.36891571  0.80769085    -0.15700
F1164       F  0.05632695  0.38554828  0.76608618    -0.13340
C1165       C  0.39707800  0.43797028  0.88174478     0.24670
C1166       C  0.41982297  0.43766226  0.87400798    -0.23430
C1167       C  0.44418318  0.46012425  0.87841817     0.19580
C1168       C  0.44568012  0.48275924  0.89082056     0.24620
C1169       C  0.42291496  0.48266167  0.89917928    -0.23380
C1170       C  0.39871648  0.46009825  0.89502750     0.19520
F1171       F  0.37644744  0.46025267  0.90184326    -0.13340
F1172       F  0.37336067  0.41627246  0.87761119    -0.15700
F1173       F  0.46896513  0.00496604  0.89349452    -0.15700
F1174       F  0.46637399  0.45979818  0.87179510    -0.13340
C1175       C  0.40553137  0.21227243  0.85592834     0.24670
C1176       C  0.40550534  0.22532479  0.88152979    -0.23430
C1177       C  0.40371037  0.21363061  0.90579744     0.19580
C1178       C  0.40381973  0.19033546  0.90473209     0.24620
C1179       C  0.40609798  0.17837814  0.87937962    -0.23380
C1180       C  0.40595431  0.18905405  0.85489973     0.19520
F1181       F  0.40748689  0.17778015  0.83008123    -0.13340
F1182       F  0.40571565  0.22220533  0.83180527    -0.15700
F1183       F  0.40222159  0.17980521  0.92879574    -0.15700
F1184       F  0.40318437  0.22527499  0.93080508    -0.13340
C1185       C  0.03369258  0.44612727  0.85671098     0.24670
C1186       C  0.01361532  0.44058670  0.87458482    -0.23430
C1187       C  0.01723564  0.45720235  0.89838505     0.19580
C1188       C  0.04169293  0.47836039  0.90551743     0.24620
C1189       C  0.06267660  0.48261419  0.88901033    -0.23380
C1190       C  0.05817944  0.46698005  0.86384684     0.19520
F1191       F  0.07762632  0.47103422  0.84656169    -0.13340
F1192       F  0.03024852  0.42988241  0.83382039    -0.15700
F1193       F  0.04511465  0.49345404  0.92935164    -0.15700
F1194       F  0.99748122  0.45172081  0.91569034    -0.13340
C1195       C  0.31405072  0.20612205  0.86948227     0.24670
C1196       C  0.31582174  0.22838283  0.88379583    -0.23430
C1197       C  0.29342933  0.22827341  0.89327417     0.19580
C1198       C  0.26938826  0.20584479  0.88916757     0.24620
C1199       C  0.26743241  0.18309324  0.87553840    -0.23380
C1200       C  0.28991275  0.18347895  0.86542219     0.19520
F1201       F  0.28866916  0.16182236  0.85253055    -0.13340
F1202       F  0.33563035  0.20648176  0.85925429    -0.15700
F1203       F  0.24794477  0.20636385  0.89853126    -0.15700
F1204       F  0.29483950  0.25015164  0.90594963    -0.13340
C1205       C  0.32557468  0.32539672  0.97565033     0.24670
C1206       C  0.34333776  0.31629933  0.97992816    -0.23430
C1207       C  0.34843923  0.31334078  0.50701165     0.19580
C1208       C  0.33928188  0.32285201  0.52925573     0.24620
C1209       C  0.32561498  0.33645261  0.52492456    -0.23380
C1210       C  0.31720068  0.33577280  0.99781951     0.19520
F1211       F  0.30325618  0.34755615  0.99242729    -0.13340
F1212       F  0.31871648  0.32702414  0.94962323    -0.15700
F1213       F  0.34582459  0.32070398  0.55520227    -0.15700
F1214       F  0.36471558  0.30405137  0.51214837    -0.13340
C1215       C  0.33707684  0.35554468  0.74549187     0.24670
C1216       C  0.35325949  0.38007965  0.73625175    -0.23430
C1217       C  0.37855518  0.39538778  0.74848200     0.19580
C1218       C  0.38761094  0.38635848  0.76875820     0.24620
C1219       C  0.37169992  0.36167285  0.77781703    -0.23380
C1220       C  0.34615707  0.34647533  0.76609998     0.19520
F1221       F  0.32997424  0.32264785  0.77418254    -0.13340
F1222       F  0.31248516  0.34015017  0.73452750    -0.15700
F1223       F  0.41228350  0.40218121  0.77936565    -0.15700
F1224       F  0.39526551  0.41906502  0.74034919    -0.13340
O1225       O  0.36609894  0.83203634  0.31098299    -0.74210
O1226       O  0.40618317  0.86661813  0.30675615    -0.53120
C1227       C  0.38188675  0.85264644  0.29977226     0.79520
O1228       O  0.36859725  0.83868195  0.44510263    -0.58810
O1229       O  0.37020892  0.80227476  0.45232298    -0.51840
C1230       C  0.36171145  0.81857462  0.45770248     0.71530
O1231       O  0.40652503  0.89915666  0.39088950    -0.73370
O1232       O  0.42975289  0.90678317  0.35200878    -0.53940
C1233       C  0.41845666  0.91282588  0.37140990     0.77530
O1234       O  0.34156274  0.76558786  0.36321993    -0.58520
O1235       O  0.35607363  0.76068454  0.40475429    -0.51640
C1236       C  0.33964518  0.75303944  0.38401259     0.74120
Zr1237     Zr  0.36954953  0.80695308  0.34644117     2.54710
O1238       O  0.32674387  0.80330700  0.34981131    -0.79080
O1239       O  0.35627233  0.77604754  0.30559601    -0.92500
Zr1240     Zr  0.39617205  0.85992589  0.40926379     2.64680
O1241       O  0.35766676  0.86471049  0.40551471    -0.97450
O1242       O  0.41362065  0.89126109  0.44975261    -0.79520
O1243       O  0.39119922  0.85151727  0.36083826    -0.82870
O1244       O  0.37314768  0.81539055  0.39528155    -2.17580
O1245       O  0.42017708  0.76445214  0.36228210    -0.66260
O1246       O  0.40162234  0.76018248  0.40410473    -0.50830
C1247       C  0.40913965  0.75164546  0.38281469     0.72510
O1248       O  0.49079672  0.90157171  0.39251930    -0.59170
O1249       O  0.47523215  0.90708104  0.35223853    -0.51150
C1250       C  0.49175583  0.91473477  0.37267533     0.74310
O1251       O  0.46922249  0.83731632  0.44290090    -0.70570
O1252       O  0.42919637  0.80612443  0.45473896    -0.49240
C1253       C  0.45430821  0.82089262  0.45895872     0.75690
O1254       O  0.46402728  0.83132499  0.31090169    -0.65900
O1255       O  0.45879993  0.86622589  0.30560316    -0.53090
C1256       C  0.46850214  0.85149355  0.29899247     0.74070
Zr1257     Zr  0.43580052  0.80663913  0.34658803     2.77540
O1258       O  0.47434009  0.80181752  0.34961122    -0.96640
O1259       O  0.41858354  0.77668313  0.30506025    -0.77470
Zr1260     Zr  0.46284641  0.86009949  0.40866897     2.70070
O1261       O  0.50598880  0.86459854  0.40521829    -0.78710
O1262       O  0.47665584  0.89189896  0.44876784    -0.97800
Zr1263     Zr  0.43373134  0.86843383  0.34396942     2.21500
Zr1264     Zr  0.39841077  0.79891553  0.41506172     2.11130
O1265       O  0.44029195  0.81512489  0.39534379    -2.46480
O1266       O  0.45945638  0.85141375  0.36033215    -0.78510
O1267       O  0.39441101  0.79046561  0.36561569    -0.70700
O1268       O  0.43824866  0.87784489  0.39262495    -2.31660
O1269       O  0.41125255  0.82373014  0.32784065    -2.27870
O1270       O  0.42154522  0.84401037  0.42879803    -0.72460
H1271       H  0.35575058  0.80752146  0.40199402     0.79540
H1272       H  0.44710358  0.89619925  0.39816546     0.80620
H1273       H  0.44931837  0.80676106  0.40210471     0.82850
H1274       H  0.41007268  0.82116842  0.30793929     0.80460
H1275       H  0.42989847  0.90580691  0.44380990     0.43490
H1276       H  0.46100580  0.88625726  0.45980992     0.42460
H1277       H  0.00397620  0.85166311  0.38987155     0.42140
H1278       H  0.47395389  0.79553013  0.36785710     0.40070
H1279       H  0.39977796  0.76584435  0.30805271     0.43210
H1280       H  0.36521412  0.78654543  0.29027943     0.37990
H1281       H  0.33040233  0.82128294  0.35464845     0.44110
H1282       H  0.34280963  0.84679907  0.40340119     0.40520
H1283       H  0.47047565  0.78680578  0.33619710     0.45440
H1284       H  0.33766184  0.77056282  0.30212338     0.44160
H1285       H  0.35619706  0.87193240  0.42406713     0.44300
H1286       H  0.48876739  0.88878805  0.45971798     0.44660
O1287       O  0.41979677  0.65392936  0.40180594    -0.74210
O1288       O  0.40311153  0.63949473  0.35761679    -0.53120
C1289       C  0.40993667  0.65579010  0.37928892     0.79520
O1290       O  0.48852784  0.58277021  0.39096336    -0.58810
O1291       O  0.47157498  0.56434675  0.43056661    -0.51840
C1292       C  0.48863478  0.57124844  0.41209988     0.71530
O1293       O  0.46928001  0.61970863  0.32625282    -0.73370
O1294       O  0.43231756  0.61998046  0.31306392    -0.53940
C1295       C  0.45587708  0.62440641  0.30936293     0.77530
O1296       O  0.45688659  0.63134958  0.46422224    -0.58520
O1297       O  0.45557452  0.59304003  0.46979413    -0.51640
C1298       C  0.46387289  0.61739667  0.47656750     0.74120
Zr1299     Zr  0.43066740  0.62538844  0.42316207     2.54710
O1300       O  0.46747007  0.66927488  0.42875488    -0.79080
O1301       O  0.40761301  0.63521260  0.45947253    -0.92500
Zr1302     Zr  0.46502963  0.60096205  0.36918554     2.64680
O1303       O  0.50254633  0.64290715  0.38402903    -0.97450
O1304       O  0.49241612  0.59237683  0.33755885    -0.79520
O1305       O  0.44120459  0.62318720  0.37606479    -0.82870
O1306       O  0.45598736  0.60488232  0.41566425    -2.17580
O1307       O  0.35845063  0.52803088  0.44624932    -0.66260
O1308       O  0.39741843  0.53225531  0.45982807    -0.50830
C1309       C  0.37229445  0.52138803  0.46038885     0.72510
O1310       O  0.36530871  0.53203466  0.32724189    -0.59170
O1311       O  0.38251613  0.56831419  0.30634576    -0.51150
C1312       C  0.36925027  0.54340512  0.30532185     0.74310
O1313       O  0.41254649  0.50857708  0.37781984    -0.70570
O1314       O  0.42947845  0.52201052  0.42204748    -0.49240
C1315       C  0.42206261  0.50624772  0.40015626     0.75690
O1316       O  0.33721841  0.56473793  0.38130208    -0.65900
O1317       O  0.35653968  0.58843635  0.34510647    -0.53090
C1318       C  0.33680171  0.57549799  0.35961314     0.74070
Zr1319     Zr  0.36605572  0.55893346  0.41192295     2.77540
O1320       O  0.32153710  0.52283583  0.40736248    -0.96640
O1321       O  0.35299955  0.58082111  0.44764089    -0.77470
Zr1322     Zr  0.39973244  0.53504043  0.35630114     2.70070
O1323       O  0.36797560  0.98919495  0.34773539    -0.78710
O1324       O  0.41838607  0.52672251  0.31466750    -0.97800
Zr1325     Zr  0.40128129  0.59782484  0.34906313     2.21500
Zr1326     Zr  0.42990890  0.56254246  0.43002515     2.11130
O1327       O  0.38999869  0.53715769  0.40309889    -2.46480
O1328       O  0.37526183  0.55589670  0.36471242    -0.78510
O1329       O  0.40525796  0.58390807  0.43948564    -0.70700
O1330       O  0.42606592  0.57630329  0.34143850    -2.31660
O1331       O  0.39098130  0.60074942  0.39677577    -2.27870
O1332       O  0.43923468  0.55898756  0.38261469    -0.72460
H1333       H  0.47276498  0.61423068  0.42539680     0.79540
H1334       H  0.42945077  0.57457361  0.32220554     0.80620
H1335       H  0.38060746  0.51951602  0.40774665     0.82850
H1336       H  0.38055448  0.60911300  0.39898682     0.80460
H1337       H  0.48034574  0.57542414  0.32741790     0.43490
H1338       H  0.42896339  0.51928815  0.32105033     0.42460
H1339       H  0.35465315  0.48626108  0.36148970     0.42140
H1340       H  0.32324271  0.50709071  0.40472925     0.40070
H1341       H  0.35606808  0.57512724  0.46507677     0.43210
H1342       H  0.39225664  0.63406198  0.44989188     0.37990
H1343       H  0.48228685  0.66761481  0.42143952     0.44110
H1344       H  0.51369563  0.63885369  0.39540931     0.40520
H1345       H  0.31442397  0.52239705  0.42585430     0.45440
H1346       H  0.41895176  0.65391202  0.46511619     0.44160
H1347       H  0.01220636  0.64872663  0.36707291     0.44300
H1348       H  0.40342694  0.51204505  0.30397309     0.44660
O1349       O  0.00818267  0.90975757  0.13651399    -0.74210
O1350       O  0.03050446  0.93462874  0.17579661    -0.53120
C1351       C  0.01052546  0.92389788  0.15885234     0.79520
O1352       O  0.07235714  0.83841619  0.12608354    -0.58810
O1353       O  0.08838532  0.85064509  0.08381129    -0.51660
C1354       C  0.08005023  0.83434495  0.10251922     0.71530
O1355       O  0.04184926  0.86922756  0.19440759    -0.73370
O1356       O  0.05053938  0.91004797  0.20984713    -0.53940
C1357       C  0.03947102  0.88554671  0.21151235     0.77530
O1358       O  0.02110643  0.86688674  0.06790534    -0.58520
O1359       O  0.05682228  0.87033756  0.04624114    -0.51640
C1360       C  0.03194943  0.86251244  0.04705352     0.74120
Zr1361     Zr  0.03413063  0.89807805  0.10685667     2.54710
O1362       O  0.48860244  0.86443139  0.10551916    -0.79080
O1363       O  0.02359303  0.92083596  0.07440278    -0.92500
Zr1364     Zr  0.06673571  0.87059030  0.15376059     2.64680
O1365       O  0.02749724  0.82864660  0.15486071    -0.97450
O1366       O  0.09047731  0.86014935  0.18646068    -0.79520
O1367       O  0.04360918  0.89331877  0.15211665    -0.82870
O1368       O  0.05528674  0.87315103  0.10791473    -2.17580
O1369       O  0.11541096  0.96263320  0.05946852    -0.66260
O1370       O  0.11157522  0.92354650  0.04361872    -0.50830
C1371       C  0.11771077  0.94744987  0.04093099     0.72510
O1372       O  0.14458960  0.96625160  0.19017612    -0.59170
O1373       O  0.10666754  0.96213919  0.20683016    -0.51150
C1374       C  0.13156529  0.97188103  0.20802699     0.74310
O1375       O  0.15951749  0.92387957  0.11815213    -0.70570
O1376       O  0.13771785  0.90011468  0.07800299    -0.49240
C1377       C  0.15837103  0.91215063  0.09429029     0.75690
O1378       O  0.09629565  0.99491594  0.13624912    -0.65900
O1379       O  0.07732727  0.97851149  0.17612751    -0.53090
C1380       C  0.08708235  0.99655810  0.15995657     0.74070
Zr1381     Zr  0.10056708  0.96243553  0.10530322     2.77540
O1382       O  0.14380636  0.00051545  0.10770118    -0.96640
O1383       O  0.08110412  0.98130138  0.07770249    -0.77470
Zr1384     Zr  0.13338222  0.93402511  0.15025069     2.70070
O1385       O  0.17798049  0.96945280  0.15007376    -0.78710
O1386       O  0.14655778  0.91233137  0.18146690    -0.97800
Zr1387     Zr  0.07222022  0.93579636  0.17256863     2.21500
Zr1388     Zr  0.09372863  0.89483004  0.08216017     2.11130
O1389       O  0.12209891  0.93765495  0.10469685    -2.46480
O1390       O  0.11198095  0.95865493  0.15006416    -0.78510
O1391       O  0.07244285  0.92028682  0.08249241    -0.70700
O1392       O  0.09518128  0.91239230  0.17554619    -2.31660
O1393       O  0.06118379  0.94037705  0.12742521    -2.27870
O1394       O  0.10508328  0.89194391  0.12870215    -0.72460
H1395       H  0.04428419  0.85564048  0.09977813     0.79540
H1396       H  0.09938351  0.91170960  0.19449924     0.80620
H1397       H  0.13779934  0.94628626  0.09469672     0.82850
H1398       H  0.05228088  0.95030177  0.12769997     0.80460
H1399       H  0.08441574  0.86291592  0.20473639     0.43490
H1400       H  0.14505567  0.89708735  0.17000454     0.42460
H1401       H  0.17692551  0.98166132  0.13827783     0.42140
H1402       H  0.15496803  0.99466833  0.09791039     0.40070
H1403       H  0.07336324  0.96895474  0.06101511     0.43210
H1404       H  0.03135364  0.93889472  0.08283476     0.37990
H1405       H  0.48827732  0.85183301  0.11772222     0.44110
H1406       H  0.02116565  0.82279779  0.13537165     0.40520
H1407       H  0.14224628  0.51211285  0.09538753     0.45440
H1408       H  0.00458505  0.91382571  0.07566256     0.44160
H1409       H  0.03365483  0.81681953  0.16016888     0.44300
H1410       H  0.16554350  0.92398738  0.18480411     0.44660
O1411       O  0.14936867  0.61526760  0.32441891    -0.74210
O1412       O  0.18815074  0.61832505  0.31255055    -0.53120
C1413       C  0.16835140  0.62167196  0.30838327     0.79520
O1414       O  0.17251861  0.63038026  0.46184426    -0.58810
O1415       O  0.13688513  0.59145473  0.46853477    -0.51840
C1416       C  0.15231364  0.61593896  0.47479015     0.71530
O1417       O  0.23073898  0.65660221  0.39843695    -0.73370
O1418       O  0.23568920  0.64085507  0.35583492    -0.53940
C1419       C  0.24290742  0.65860577  0.37618832     0.77530
O1420       O  0.09404557  0.57862320  0.38969325    -0.58520
O1421       O  0.09339229  0.56195133  0.43030760    -0.51640
C1422       C  0.08293133  0.56822062  0.41149473     0.74120
Zr1423     Zr  0.13440117  0.59446302  0.36604347     2.54710
O1424       O  0.13213618  0.63404225  0.37554853    -0.79080
O1425       O  0.09757676  0.57561569  0.33264353    -0.92500
Zr1426     Zr  0.19312763  0.62605039  0.42056429     2.64680
O1427       O  0.19344074  0.66715211  0.42214370    -0.97450
O1428       O  0.22765153  0.64216596  0.45641013    -0.79520
O1429       O  0.18007828  0.62043442  0.37322699    -0.82870
O1430       O  0.14743183  0.60200162  0.41295073    -2.17580
O1431       O  0.10743778  0.50083041  0.38578488    -0.66260
O1432       O  0.09321077  0.52207289  0.41476597    -0.50830
C1433       C  0.08920177  0.50302595  0.39724916     0.72510
O1434       O  0.23111834  0.56681782  0.38320186    -0.59170
O1435       O  0.23476251  0.58928229  0.34605865    -0.51150
C1436       C  0.24184703  0.57681318  0.36097292     0.74310
O1437       O  0.17483357  0.53212890  0.45058646    -0.70570
O1438       O  0.13726034  0.53261839  0.46083079    -0.49240
C1439       C  0.15322223  0.52385089  0.46334581     0.75690
O1440       O  0.17383964  0.53348752  0.32828475    -0.65900
O1441       O  0.18901987  0.56855236  0.30580778    -0.53090
C1442       C  0.17793254  0.54379936  0.30567201     0.74070
Zr1443     Zr  0.14058958  0.53108056  0.35880025     2.77540
O1444       O  0.13682089  0.98809196  0.35559121    -0.96640
O1445       O  0.10686739  0.51728886  0.32224209    -0.77470
Zr1446     Zr  0.19774492  0.56288270  0.41521880     2.70070
O1447       O  0.21176336  0.53112031  0.41933824    -0.78710
O1448       O  0.23188425  0.59059409  0.44997595    -0.97800
Zr1449     Zr  0.19836799  0.59718385  0.34884022     2.21500
Zr1450     Zr  0.13376580  0.56097090  0.42964459     2.11130
O1451       O  0.15248578  0.53762416  0.40611570    -2.46480
O1452       O  0.18579821  0.55669779  0.36734493    -0.78510
O1453       O  0.12180805  0.55400262  0.38182120    -0.70700
O1454       O  0.21183380  0.60326031  0.39701256    -2.31660
O1455       O  0.15223502  0.57124934  0.34140667    -2.27870
O1456       O  0.17969128  0.58611016  0.43948452    -0.72460
H1457       H  0.13906472  0.61082496  0.42202276     0.79540
H1458       H  0.23059529  0.61310831  0.39928090     0.80620
H1459       H  0.14637857  0.52062743  0.41191549     0.82850
H1460       H  0.14729366  0.56877913  0.32205276     0.80460
H1461       H  0.24285940  0.64309381  0.44684589     0.43490
H1462       H  0.22683131  0.58095255  0.46654328     0.42460
H1463       H  0.19977058  0.51610905  0.40641582     0.42140
H1464       H  0.15338595  0.99036279  0.34823771     0.40070
H1465       H  0.11572206  0.52696299  0.30639876     0.43210
H1466       H  0.10312188  0.56837916  0.31667269     0.37990
H1467       H  0.15017225  0.64815732  0.37368918     0.44110
H1468       H  0.17508195  0.66270157  0.42453965     0.40520
H1469       H  0.13774436  0.98428739  0.37481156     0.45440
H1470       H  0.09697484  0.59057369  0.32603992     0.44160
H1471       H  0.20258255  0.67662759  0.43993549     0.44300
H1472       H  0.24739909  0.58968161  0.44371119     0.44660
O1473       O  0.03476943  0.67601452  0.20881058    -0.74210
O1474       O  0.04328994  0.64582791  0.22473008    -0.53120
C1475       C  0.03045375  0.65818852  0.22484075     0.79520
O1476       O  0.02887992  0.64777441  0.08059716    -0.58810
O1477       O  0.06654184  0.68039175  0.06610833    -0.51840
C1478       C  0.04207790  0.66336142  0.06299510     0.71530
O1479       O  0.00788551  0.61162327  0.15932766    -0.73370
O1480       O  0.02843727  0.59837160  0.18681064    -0.53940
C1481       C  0.00842622  0.59401260  0.17203961     0.77530
O1482       O  0.07146984  0.73211164  0.14266295    -0.58520
O1483       O  0.09220826  0.73064559  0.10342973    -0.51640
C1484       C  0.08142260  0.74058319  0.11944244     0.74120
Zr1485     Zr  0.06616384  0.69878553  0.17338407     2.54710
O1486       O  0.03158957  0.70977963  0.17678679    -0.79080
O1487       O  0.09036689  0.73430737  0.20886747    -0.92500
Zr1488     Zr  0.03575401  0.63418713  0.12306774     2.64680
O1489       O  0.49087237  0.62486505  0.11626309    -0.97450
O1490       O  0.02421619  0.59445229  0.09369615    -0.79520
O1491       O  0.04397716  0.65301920  0.16892272    -0.82870
O1492       O  0.05719048  0.68004432  0.12674392    -2.17580
O1493       O  0.15981447  0.73590586  0.14680679    -0.66260
O1494       O  0.14097958  0.73030580  0.10392208    -0.50830
C1495       C  0.15961386  0.74276901  0.12230490     0.72510
O1496       O  0.09845679  0.60211198  0.15289414    -0.59170
O1497       O  0.07482580  0.60025065  0.19060511    -0.51150
C1498       C  0.08691137  0.59180244  0.17446609     0.74310
O1499       O  0.12174725  0.64723469  0.08201050    -0.70570
O1500       O  0.11746956  0.68023689  0.06707430    -0.49240
C1501       C  0.12459580  0.66289263  0.06428902     0.75690
O1502       O  0.14179013  0.67712549  0.21109155    -0.65900
O1503       O  0.10305525  0.64610733  0.22587872    -0.53090
C1504       C  0.12820702  0.65876963  0.22655785     0.74070
Zr1505     Zr  0.13330765  0.70004260  0.17553445     2.77540
O1506       O  0.17874979  0.71062683  0.17865044    -0.96640
O1507       O  0.14332390  0.73427680  0.21234568    -0.77470
Zr1508     Zr  0.10308214  0.63566571  0.12539950     2.70070
O1509       O  0.14540940  0.63812018  0.12817869    -0.78710
O1510       O  0.08330133  0.59549757  0.09510177    -0.97800
Zr1511     Zr  0.07009377  0.63885595  0.19094278     2.21500
Zr1512     Zr  0.09795077  0.69320427  0.10554971     2.11130
O1513       O  0.12575805  0.68148300  0.12889701    -2.46480
O1514       O  0.11132101  0.65423883  0.17113714    -0.78510
O1515       O  0.10662682  0.71272804  0.15232939    -0.70700
O1516       O  0.06187032  0.62015762  0.14437340    -2.31660
O1517       O  0.09255228  0.68558829  0.19695194    -2.27870
O1518       O  0.07589381  0.64729187  0.10182423    -0.72460
H1519       H  0.04678930  0.68575144  0.11742323     0.79540
H1520       H  0.05308532  0.60150493  0.14330125     0.80620
H1521       H  0.14219492  0.68761938  0.12013117     0.82850
H1522       H  0.09507861  0.69167621  0.21631681     0.80460
H1523       H  0.02502001  0.58228030  0.10571547     0.43490
H1524       H  0.07624397  0.59935284  0.07884996     0.42460
H1525       H  0.15517303  0.65177939  0.14337143     0.42140
H1526       H  0.18340296  0.70888398  0.15935761     0.40070
H1527       H  0.14700077  0.74957140  0.20264110     0.43210
H1528       H  0.07834828  0.73060581  0.22417829     0.37990
H1529       H  0.01834537  0.69781442  0.16238578     0.44110
H1530       H  0.49208556  0.64193640  0.11523063     0.40520
H1531       H  0.18866832  0.72943681  0.18444524     0.45440
H1532       H  0.09112006  0.74956769  0.20136607     0.44160
H1533       H  0.48498651  0.61589035  0.09746724     0.44300
H1534       H  0.09820280  0.59374873  0.08822214     0.44660
O1535       O  0.32405180  0.96695898  0.18904147    -0.74210
O1536       O  0.35979162  0.96512729  0.20378713    -0.53120
C1537       C  0.34351238  0.97358037  0.20604427     0.79520
O1538       O  0.26507850  0.84110922  0.12827331    -0.58810
O1539       O  0.26181233  0.85162042  0.08486456    -0.51840
C1540       C  0.25298475  0.83695743  0.10493933     0.71530
O1541       O  0.32568678  0.87231575  0.19659225    -0.73370
O1542       O  0.35984593  0.91276909  0.20781507    -0.53940
C1543       C  0.34531613  0.88899415  0.21236483     0.77530
O1544       O  0.26778528  0.92700699  0.11567929    -0.58520
O1545       O  0.26385897  0.90058407  0.07694804    -0.51640
C1546       C  0.25612326  0.91384033  0.09275242     0.74120
Zr1547     Zr  0.30494915  0.93796161  0.14642431     2.54710
O1548       O  0.26865915  0.92166566  0.17692797    -0.79080
O1549       O  0.30345952  0.97733756  0.14034164    -0.92500
Zr1550     Zr  0.30487204  0.87261612  0.15333202     2.64680
O1551       O  0.27165009  0.86392858  0.18692280    -0.97450
O1552       O  0.30116919  0.83011378  0.15325599    -0.79520
O1553       O  0.31998430  0.91570890  0.17276779    -0.82870
O1554       O  0.28900417  0.89458958  0.12767714    -2.17580
O1555       O  0.34821599  0.95979830  0.05444911    -0.66260
O1556       O  0.31240274  0.92080080  0.04032848    -0.50830
C1557       C  0.33030685  0.94437889  0.03662593     0.72510
O1558       O  0.40410105  0.91142853  0.13224064    -0.59170
O1559       O  0.40519653  0.93400677  0.17294570    -0.51150
C1560       C  0.41519374  0.92450893  0.15533316     0.74310
O1561       O  0.34414146  0.86300279  0.06587438    -0.70570
O1562       O  0.30906551  0.86375920  0.04756735    -0.49240
C1563       C  0.32559226  0.85523148  0.04764590     0.75690
O1564       O  0.40315729  0.99057505  0.12723449    -0.65900
O1565       O  0.40473600  0.97913916  0.17011796    -0.53090
C1566       C  0.41418488  0.99471975  0.15131674     0.74070
Zr1567     Zr  0.36450987  0.95970703  0.09909353     2.77540
O1568       O  0.40101582  0.97249415  0.06899604    -0.96640
O1569       O  0.36487131  0.00066794  0.09858784    -0.77470
Zr1570     Zr  0.36387289  0.89460662  0.10486528     2.70070
O1571       O  0.39634366  0.90850419  0.06989796    -0.78710
O1572       O  0.36994809  0.85830037  0.11379125    -0.97800
Zr1573     Zr  0.36600955  0.93723528  0.16891267     2.21500
Zr1574     Zr  0.30174747  0.89394423  0.08066876     2.11130
O1575       O  0.34832961  0.91646349  0.07896074    -2.46480
O1576       O  0.38068677  0.93789626  0.12336844    -0.78510
O1577       O  0.31844906  0.93783772  0.10045765    -0.70700
O1578       O  0.35059867  0.89357800  0.15047201    -2.31660
O1579       O  0.35075455  0.96035839  0.14427280    -2.27870
O1580       O  0.31791764  0.87223817  0.10714949    -0.72460
H1581       H  0.27026486  0.88599146  0.12830951     0.79540
H1582       H  0.35817978  0.88533328  0.16035374     0.80620
H1583       H  0.35349447  0.91632917  0.06015029     0.82850
H1584       H  0.35808398  0.97811992  0.15201838     0.80460
H1585       H  0.31779295  0.83242052  0.14603775     0.43490
H1586       H  0.35250107  0.84281291  0.11031693     0.42460
H1587       H  0.40792028  0.92722376  0.07520296     0.42140
H1588       H  0.39427613  0.95937038  0.05284155     0.40070
H1589       H  0.34623823  0.99580042  0.09756270     0.43210
H1590       H  0.32143833  0.99160434  0.14497126     0.37990
H1591       H  0.27568031  0.91873237  0.19385693     0.44110
H1592       H  0.25847692  0.86669235  0.17757625     0.40520
H1593       H  0.40334697  0.98852000  0.06184286     0.45440
H1594       H  0.29311694  0.97888105  0.15566250     0.44160
H1595       H  0.26299033  0.84498285  0.18793550     0.44300
H1596       H  0.38032010  0.85687962  0.09843303     0.44660
C1597       C  0.47190833  0.56011404  0.14191264     0.24670
C1598       C  0.48518012  0.56790590  0.16786006    -0.23430
C1599       C  0.47585732  0.55066004  0.18838098     0.19580
C1600       C  0.45280158  0.52667565  0.18330432     0.24620
C1601       C  0.43921557  0.51933579  0.15728937    -0.23380
C1602       C  0.44968342  0.53627974  0.13654862     0.19520
F1603       F  0.43849476  0.53015693  0.11067986    -0.13340
F1604       F  0.48055153  0.57552079  0.12107977    -0.15700
F1605       F  0.44377244  0.51091097  0.20392456    -0.15700
F1606       F  0.48850617  0.55721865  0.21346901    -0.13340
C1607       C  0.19844106  0.76741014  0.09369296     0.24670
C1608       C  0.18213689  0.76723712  0.11495771    -0.23430
C1609       C  0.18728726  0.79083081  0.12917910     0.19580
C1610       C  0.20903009  0.81402307  0.12330719     0.24620
C1611       C  0.22639776  0.81417792  0.10333843    -0.23380
C1612       C  0.22065061  0.79070571  0.08816095     0.19520
F1613       F  0.23746874  0.79005370  0.06950618    -0.13340
F1614       F  0.19371960  0.74483331  0.07946731    -0.15700
F1615       F  0.21412951  0.83635544  0.13841903    -0.15700
F1616       F  0.17145469  0.79134863  0.14918130    -0.13340
C1617       C  0.13095942  0.62328010  0.24787194     0.24670
C1618       C  0.14193838  0.64995189  0.24512989    -0.23430
C1619       C  0.16548698  0.66716803  0.26021449     0.19580
C1620       C  0.17632794  0.65797492  0.27929008     0.24620
C1621       C  0.16440303  0.63134560  0.28269631    -0.23380
C1622       C  0.14220455  0.61417779  0.26595565     0.19520
F1623       F  0.12996154  0.58841108  0.26890335    -0.13340
F1624       F  0.10865137  0.60574133  0.23360524    -0.15700
F1625       F  0.19728281  0.67518686  0.29575319    -0.15700
F1626       F  0.17696087  0.69298256  0.25798180    -0.13340
C1627       C  0.16247926  0.64021197  0.02104532     0.24670
C1628       C  0.14603142  0.62949731  0.49730737    -0.23430
C1629       C  0.12590462  0.63522125  0.49340715     0.19580
C1630       C  0.12096552  0.64980400  0.01414447     0.24620
C1631       C  0.13597350  0.65856016  0.03899547    -0.23380
C1632       C  0.15742899  0.65453133  0.04181456     0.19520
F1633       F  0.17224352  0.66279064  0.06571052    -0.13340
F1634       F  0.18279757  0.63592013  0.02453477    -0.15700
F1635       F  0.10036778  0.65363016  0.01084854    -0.15700
F1636       F  0.11099990  0.62655073  0.46958232    -0.13340
C1637       C  0.15419000  0.97749521  0.01314255     0.24670
C1638       C  0.12739860  0.95987287  0.01495890    -0.23430
C1639       C  0.10967235  0.96240320  0.99805580     0.19580
C1640       C  0.11819792  0.98277455  0.48112278     0.24620
C1641       C  0.14488028  0.50135828  0.48040876    -0.23380
C1642       C  0.16287625  0.99773118  0.49574857     0.19520
F1643       F  0.18875504  0.51483189  0.49548467    -0.13340
F1644       F  0.17183040  0.97644576  0.03003312    -0.15700
F1645       F  0.10006801  0.98461804  0.46585799    -0.15700
F1646       F  0.08367733  0.94647749  0.99994453    -0.13340
C1647       C  0.13446007  0.98413864  0.25791580     0.24670
C1648       C  0.14554056  0.99024711  0.23236962    -0.23430
C1649       C  0.16833761  0.51426443  0.23060891     0.19580
C1650       C  0.17926540  0.53217343  0.25422903     0.24620
C1651       C  0.16780940  0.52591319  0.27986989    -0.23380
C1652       C  0.14542346  0.50149399  0.28114857     0.19520
F1653       F  0.13313530  0.49434480  0.30485250    -0.13340
F1654       F  0.11264054  0.96109320  0.26050193    -0.15700
F1655       F  0.20099378  0.55531270  0.25208746    -0.15700
F1656       F  0.17939484  0.02071633  0.20598820    -0.13340
C1657       C  0.06373699  0.54434599  0.17875422     0.24670
C1658       C  0.08722190  0.56792320  0.17928206    -0.23430
C1659       C  0.11084785  0.56764498  0.17691046     0.19580
C1660       C  0.11086149  0.54426858  0.17161505     0.24620
C1661       C  0.08729432  0.52081852  0.16902474    -0.23380
C1662       C  0.06379552  0.52085922  0.17378730     0.19520
F1663       F  0.04076961  0.99829023  0.17133065    -0.13340
F1664       F  0.04064188  0.54409891  0.18018888    -0.15700
F1665       F  0.13380876  0.54453751  0.16806763    -0.15700
F1666       F  0.13381892  0.59021439  0.17783198    -0.13340
C1667       C  0.05646806  0.78687010  0.10678556     0.24670
C1668       C  0.07888034  0.80866960  0.09854048    -0.23430
C1669       C  0.10148107  0.80675148  0.09442421     0.19580
C1670       C  0.10207116  0.78419443  0.10003283     0.24620
C1671       C  0.08021214  0.76334018  0.11048660    -0.23380
C1672       C  0.05720663  0.76469346  0.11297290     0.19520
F1673       F  0.03545503  0.74465866  0.12196443    -0.13340
F1674       F  0.03409744  0.78771243  0.11055470    -0.15700
F1675       F  0.12464142  0.78356047  0.09724811    -0.15700
F1676       F  0.12364519  0.82748108  0.08740501    -0.13340
C1677       C  0.20676900  0.93655103  0.09313416     0.24670
C1678       C  0.18330036  0.91340783  0.08607682    -0.23430
C1679       C  0.18462709  0.89130828  0.07569743     0.19580
C1680       C  0.20872965  0.89165195  0.07553602     0.24620
C1681       C  0.23183269  0.91426073  0.08536943    -0.23380
C1682       C  0.23062750  0.93699941  0.09269808     0.19520
F1683       F  0.25256989  0.95955436  0.10105226    -0.13340
F1684       F  0.20650723  0.95865539  0.10194463    -0.15700
F1685       F  0.20910582  0.86938533  0.06807794    -0.15700
F1686       F  0.16250078  0.86890761  0.06779165    -0.13340
C1687       C  0.47395768  0.92404250  0.18558629     0.24670
C1688       C  0.48936744  0.92986557  0.16242823    -0.23430
C1689       C  0.48211307  0.93799665  0.13945555     0.19580
C1690       C  0.45863341  0.93782580  0.13832471     0.24620
C1691       C  0.44193573  0.92979351  0.16027786    -0.23380
C1692       C  0.45017077  0.92410304  0.18454524     0.19520
F1693       F  0.43436441  0.91658853  0.20610859    -0.13340
F1694       F  0.48083347  0.91637433  0.20804492    -0.15700
F1695       F  0.45147062  0.94410723  0.11494501    -0.15700
F1696       F  0.49708966  0.94445760  0.11711968    -0.13340
C1697       C  0.02879336  0.64377848  0.01509524     0.24670
C1698       C  0.02690916  0.65920447  0.03736896    -0.23430
C1699       C  0.50449730  0.66184378  0.03885334     0.19580
C1700       C  0.48384540  0.64828228  0.01913186     0.24620
C1701       C  0.48502439  0.63134334  0.49803826    -0.23380
C1702       C  0.00810949  0.63011808  0.49552084     0.19520
F1703       F  0.01065632  0.61576487  0.47391143    -0.13340
F1704       F  0.04965578  0.64004857  0.01369457    -0.15700
F1705       F  0.46221131  0.65070594  0.02140085    -0.15700
F1706       F  0.50184416  0.67601564  0.06065840    -0.13340
C1707       C  0.48192034  0.65878375  0.27735456     0.24670
C1708       C  0.46877729  0.63268754  0.28304423    -0.23430
C1709       C  0.47437869  0.61513685  0.26764907     0.19580
C1710       C  0.99387611  0.62355916  0.24856245     0.24620
C1711       C  0.00828264  0.64986008  0.24379775    -0.23380
C1712       C  0.50125648  0.66725324  0.25750156     0.19520
F1713       F  0.51424234  0.69267384  0.25310099    -0.13340
F1714       F  0.47735972  0.67631119  0.29228727    -0.15700
F1715       F  0.99913336  0.60584458  0.23523782    -0.15700
F1716       F  0.46228292  0.58986935  0.27281773    -0.13340
C1717       C  0.36664018  0.98037601  0.97813617     0.24670
C1718       C  0.35816122  0.49865476  0.47706778    -0.23430
C1719       C  0.33565228  0.99427590  0.49122027     0.19580
C1720       C  0.32353811  0.97359908  0.00796797     0.24620
C1721       C  0.33301876  0.95623397  0.01028185    -0.23380
C1722       C  0.35415240  0.95944737  0.99430067     0.19520
F1723       F  0.36448287  0.94373247  0.99663341    -0.13340
F1724       F  0.38752452  0.48305708  0.96397218    -0.15700
F1725       F  0.30405739  0.97200046  0.02399919    -0.15700
F1726       F  0.32648728  0.51111158  0.49050719    -0.13340
C1727       C  0.34327327  0.99926646  0.27930875     0.24670
C1728       C  0.35912822  0.52642314  0.27872513    -0.23430
C1729       C  0.36776846  0.53601375  0.25299333     0.19580
C1730       C  0.36183439  0.51885616  0.22896473     0.24620
C1731       C  0.34735322  0.99192180  0.23027615    -0.23380
C1732       C  0.33786356  0.98235908  0.25548655     0.19520
F1733       F  0.32395716  0.95641503  0.25721928    -0.13340
F1734       F  0.33358678  0.98868926  0.30316920    -0.15700
F1735       F  0.37114752  0.52847498  0.20460627    -0.15700
F1736       F  0.38295852  0.56181198  0.25120254    -0.13340
C1737       C  0.04045518  0.55614067  0.38956792     0.24670
C1738       C  0.05609070  0.56311057  0.41388636    -0.23430
C1739       C  0.04680573  0.56797051  0.43899501     0.19580
C1740       C  0.02338360  0.56859658  0.43911519     0.24620
C1741       C  0.00973046  0.56510230  0.41405176    -0.23380
C1742       C  0.01771324  0.55747188  0.38958016     0.19520
F1743       F  0.00378936  0.55196088  0.36537812    -0.13340
F1744       F  0.04788238  0.54922379  0.36536589    -0.15700
F1745       F  0.01506043  0.57421013  0.46332141    -0.15700
F1746       F  0.06120799  0.57396496  0.46290812    -0.13340
C1747       C  0.28687900  0.59490625  0.34364353     0.24670
C1748       C  0.26446813  0.57405663  0.35299095    -0.23430
C1749       C  0.26511816  0.55164481  0.35853205     0.19580
C1750       C  0.28846861  0.55125172  0.35797318     0.24620
C1751       C  0.31163624  0.57335494  0.35210225    -0.23380
C1752       C  0.31045217  0.59465177  0.34337395     0.19520
F1753       F  0.33244161  0.61616625  0.33723300    -0.13340
F1754       F  0.28658648  0.61644973  0.33725144    -0.15700
F1755       F  0.28870571  0.52975362  0.36480846    -0.15700
F1756       F  0.24337117  0.53056127  0.36595163    -0.13340
C1757       C  0.47389905  0.84706378  0.50173911     0.24670
C1758       C  0.46824504  0.82422931  0.48553677    -0.23430
C1759       C  0.48498192  0.81381537  0.48872534     0.19580
C1760       C  0.00661207  0.82603671  0.00810823     0.24620
C1761       C  0.01297145  0.84997034  0.02279717    -0.23380
C1762       C  0.99646248  0.86034309  0.01858607     0.19520
F1763       F  0.00234283  0.88393805  0.03097694    -0.13340
F1764       F  0.45900485  0.85833619  0.49872027    -0.15700
F1765       F  0.02112022  0.81461807  0.01238191    -0.15700
F1766       F  0.48076280  0.79230346  0.47258555    -0.13340
C1767       C  0.49470570  0.86581485  0.22821374     0.24670
C1768       C  0.02138690  0.87526419  0.23367364    -0.23430
C1769       C  0.03052740  0.87609987  0.26047797     0.19580
C1770       C  0.01306874  0.86754329  0.28171024     0.24620
C1771       C  0.48644778  0.85858987  0.27635217    -0.23380
C1772       C  0.47734818  0.85774630  0.24950742     0.19520
F1773       F  0.45168451  0.84915319  0.24399935    -0.13340
F1774       F  0.48562705  0.86503412  0.20236084    -0.15700
F1775       F  0.02222239  0.86891575  0.30769084    -0.15700
F1776       F  0.05632694  0.88554832  0.26608617    -0.13340
C1777       C  0.39707799  0.93797028  0.38174479     0.24670
C1778       C  0.41982297  0.93766226  0.37400799    -0.23430
C1779       C  0.44418318  0.96012424  0.37841818     0.19580
C1780       C  0.44568012  0.98275924  0.39082058     0.24620
C1781       C  0.42291495  0.98266167  0.39917929    -0.23380
C1782       C  0.39871648  0.96009825  0.39502751     0.19520
F1783       F  0.37644743  0.96025267  0.40184327    -0.13340
F1784       F  0.37336067  0.91627246  0.37761120    -0.15700
F1785       F  0.46896513  0.50496605  0.39349452    -0.15700
F1786       F  0.46637399  0.95979818  0.37179512    -0.13340
C1787       C  0.40553138  0.71227244  0.35592833     0.24670
C1788       C  0.40550534  0.72532479  0.38152979    -0.23430
C1789       C  0.40371035  0.71363060  0.40579743     0.19580
C1790       C  0.40381971  0.69033545  0.40473208     0.24620
C1791       C  0.40609798  0.67837813  0.37937962    -0.23380
C1792       C  0.40595432  0.68905405  0.35489973     0.19520
F1793       F  0.40748692  0.67778017  0.33008123    -0.13340
F1794       F  0.40571569  0.72220534  0.33180527    -0.15700
F1795       F  0.40222154  0.67980519  0.42879573    -0.15700
F1796       F  0.40318433  0.72527497  0.43080507    -0.13340
C1797       C  0.03369254  0.94612730  0.35671099     0.24670
C1798       C  0.01361530  0.94058671  0.37458485    -0.23430
C1799       C  0.01723562  0.95720237  0.39838508     0.19580
C1800       C  0.04169291  0.97836041  0.40551746     0.24620
C1801       C  0.06267658  0.98261421  0.38901034    -0.23380
C1802       C  0.05817940  0.96698008  0.36384684     0.19520
F1803       F  0.07762627  0.97103425  0.34656167    -0.13340
F1804       F  0.03024848  0.92988244  0.33382040    -0.15700
F1805       F  0.04511465  0.99345406  0.42935167    -0.15700
F1806       F  0.99748121  0.95172082  0.41569039    -0.13340
C1807       C  0.31405072  0.70612205  0.36948225     0.24670
C1808       C  0.31582175  0.72838283  0.38379584    -0.23430
C1809       C  0.29342935  0.72827340  0.39327422     0.19580
C1810       C  0.26938828  0.70584478  0.38916762     0.24620
C1811       C  0.26743241  0.68309324  0.37553843    -0.23380
C1812       C  0.28991275  0.68347895  0.36542217     0.19520
F1813       F  0.28866915  0.66182238  0.35253051    -0.13340
F1814       F  0.33563034  0.70648178  0.35925423    -0.15700
F1815       F  0.24794479  0.70636383  0.39853135    -0.15700
F1816       F  0.29483952  0.75015162  0.40594970    -0.13340
C1817       C  0.32557469  0.82539672  0.47565034     0.24670
C1818       C  0.34333776  0.81629933  0.47992817    -0.23430
C1819       C  0.34843915  0.81334073  0.00701162     0.19580
C1820       C  0.33928177  0.82285194  0.02925570     0.24620
C1821       C  0.32561488  0.83645255  0.02492453    -0.23380
C1822       C  0.31720069  0.83577280  0.49781952     0.19520
F1823       F  0.30325618  0.84755615  0.49242730    -0.13340
F1824       F  0.31871648  0.82702413  0.44962324    -0.15700
F1825       F  0.34582444  0.82070387  0.05520224    -0.15700
F1826       F  0.36471548  0.80405131  0.01214836    -0.13340
C1827       C  0.33707682  0.85554470  0.24549189     0.24670
C1828       C  0.35325951  0.88007963  0.23625170    -0.23430
C1829       C  0.37855523  0.89538772  0.24848189     0.19580
C1830       C  0.38761099  0.88635841  0.26875808     0.24620
C1831       C  0.37169993  0.86167282  0.27781699    -0.23380
C1832       C  0.34615706  0.84647535  0.26610000     0.19520
F1833       F  0.32997418  0.82264791  0.27418264    -0.13340
F1834       F  0.31248512  0.84015023  0.23452758    -0.15700
F1835       F  0.41228359  0.90218109  0.27936545    -0.15700
F1836       F  0.39526558  0.91906493  0.24034903    -0.13340
O1837       O  0.36609895  0.83203635  0.81098301    -0.74210
O1838       O  0.40618318  0.86661813  0.80675615    -0.53120
C1839       C  0.38188675  0.85264645  0.79977228     0.79520
O1840       O  0.36859722  0.83868194  0.94510262    -0.58810
O1841       O  0.37020890  0.80227475  0.95232298    -0.51840
C1842       C  0.36171143  0.81857462  0.95770247     0.71530
O1843       O  0.40652502  0.89915666  0.89088949    -0.73370
O1844       O  0.42975289  0.90678317  0.85200878    -0.53940
C1845       C  0.41845665  0.91282588  0.87140990     0.77530
O1846       O  0.34156274  0.76558786  0.86321993    -0.58520
O1847       O  0.35607363  0.76068454  0.90475430    -0.51640
C1848       C  0.33964518  0.75303944  0.88401260     0.74120
Zr1849     Zr  0.36954954  0.80695307  0.84644117     2.54710
O1850       O  0.32674386  0.80330697  0.84981128    -0.79080
O1851       O  0.35627237  0.77604755  0.80559601    -0.92500
Zr1852     Zr  0.39617204  0.85992589  0.90926379     2.64680
O1853       O  0.35766674  0.86471048  0.90551469    -0.97450
O1854       O  0.41362062  0.89126109  0.94975261    -0.79520
O1855       O  0.39119922  0.85151726  0.86083826    -0.82870
O1856       O  0.37314768  0.81539055  0.89528155    -2.17580
O1857       O  0.42017709  0.76445214  0.86228213    -0.66260
O1858       O  0.40162234  0.76018249  0.90410475    -0.50830
C1859       C  0.40913965  0.75164546  0.88281471     0.72510
O1860       O  0.49079670  0.90157174  0.89251934    -0.59170
O1861       O  0.47523215  0.90708104  0.85223855    -0.51150
C1862       C  0.49175582  0.91473479  0.87267536     0.74310
O1863       O  0.46922247  0.83731641  0.94290101    -0.70570
O1864       O  0.42919636  0.80612444  0.95473899    -0.49240
C1865       C  0.45430819  0.82089266  0.95895879     0.75690
O1866       O  0.46402729  0.83132499  0.81090172    -0.65900
O1867       O  0.45879994  0.86622589  0.80560317    -0.53090
C1868       C  0.46850215  0.85149355  0.79899248     0.74070
Zr1869     Zr  0.43580054  0.80663914  0.84658806     2.77540
O1870       O  0.47434010  0.80181753  0.84961128    -0.96640
O1871       O  0.41858357  0.77668313  0.80506028    -0.77470
Zr1872     Zr  0.46284641  0.86009950  0.90866899     2.70070
O1873       O  0.50598877  0.86459849  0.90521824    -0.78710
O1874       O  0.47665586  0.89189898  0.94876786    -0.97800
Zr1875     Zr  0.43373135  0.86843383  0.84396942     2.21500
Zr1876     Zr  0.39841076  0.79891553  0.91506174     2.11130
O1877       O  0.44029196  0.81512490  0.89534383    -2.46480
O1878       O  0.45945638  0.85141376  0.86033217    -0.78510
O1879       O  0.39441102  0.79046561  0.86561571    -0.70700
O1880       O  0.43824865  0.87784490  0.89262495    -2.31660
O1881       O  0.41125257  0.82373014  0.82784066    -2.27870
O1882       O  0.42154521  0.84401038  0.92879804    -0.72460
H1883       H  0.35575057  0.80752146  0.90199402     0.79540
H1884       H  0.44710356  0.89619926  0.89816546     0.80620
H1885       H  0.44931838  0.80676108  0.90210477     0.82850
H1886       H  0.41007269  0.82116842  0.80793930     0.80460
H1887       H  0.42989846  0.90580689  0.94380991     0.43490
H1888       H  0.46100584  0.88625726  0.95980996     0.42460
H1889       H  0.00397617  0.85166309  0.88987159     0.42140
H1890       H  0.47395389  0.79553012  0.86785715     0.40070
H1891       H  0.39977799  0.76584437  0.80805273     0.43210
H1892       H  0.36521412  0.78654545  0.79027941     0.37990
H1893       H  0.33040231  0.82128290  0.85464845     0.44110
H1894       H  0.34280962  0.84679906  0.90340116     0.40520
H1895       H  0.47047568  0.78680580  0.83619714     0.45440
H1896       H  0.33766187  0.77056278  0.80212339     0.44160
H1897       H  0.35619703  0.87193240  0.92406711     0.44300
H1898       H  0.48876744  0.88878808  0.95971798     0.44660
O1899       O  0.41979677  0.65392936  0.90180594    -0.74210
O1900       O  0.40311153  0.63949474  0.85761679    -0.53120
C1901       C  0.40993666  0.65579010  0.87928892     0.79520
O1902       O  0.48852785  0.58277021  0.89096336    -0.58810
O1903       O  0.47157498  0.56434675  0.93056661    -0.51840
C1904       C  0.48863478  0.57124844  0.91209987     0.71530
O1905       O  0.46928001  0.61970863  0.82625282    -0.73370
O1906       O  0.43231756  0.61998046  0.81306392    -0.53940
C1907       C  0.45587708  0.62440641  0.80936293     0.77530
O1908       O  0.45688659  0.63134958  0.96422224    -0.58520
O1909       O  0.45557452  0.59304003  0.96979413    -0.51640
C1910       C  0.46387289  0.61739667  0.97656750     0.74120
Zr1911     Zr  0.43066741  0.62538844  0.92316207     2.54710
O1912       O  0.46747007  0.66927488  0.92875489    -0.79080
O1913       O  0.40761300  0.63521259  0.95947253    -0.92500
Zr1914     Zr  0.46502963  0.60096205  0.86918554     2.64680
O1915       O  0.50254633  0.64290715  0.88402904    -0.97450
O1916       O  0.49241613  0.59237684  0.83755885    -0.79520
O1917       O  0.44120459  0.62318720  0.87606479    -0.82870
O1918       O  0.45598736  0.60488232  0.91566425    -2.17580
O1919       O  0.35845064  0.52803088  0.94624932    -0.66260
O1920       O  0.39741844  0.53225531  0.95982807    -0.50830
C1921       C  0.37229445  0.52138803  0.96038885     0.72510
O1922       O  0.36530870  0.53203466  0.82724190    -0.59170
O1923       O  0.38251612  0.56831419  0.80634577    -0.51150
C1924       C  0.36925026  0.54340512  0.80532185     0.74310
O1925       O  0.41254650  0.50857708  0.87781983    -0.70570
O1926       O  0.42947845  0.52201052  0.92204748    -0.49240
C1927       C  0.42206262  0.50624772  0.90015625     0.75690
O1928       O  0.33721842  0.56473793  0.88130208    -0.65900
O1929       O  0.35653968  0.58843634  0.84510647    -0.53090
C1930       C  0.33680171  0.57549798  0.85961314     0.74070
Zr1931     Zr  0.36605572  0.55893346  0.91192295     2.77540
O1932       O  0.32153710  0.52283583  0.90736248    -0.96640
O1933       O  0.35299956  0.58082111  0.94764089    -0.77470
Zr1934     Zr  0.39973244  0.53504043  0.85630114     2.70070
O1935       O  0.36797561  0.98919496  0.84773536    -0.78710
O1936       O  0.41838606  0.52672251  0.81466749    -0.97800
Zr1937     Zr  0.40128129  0.59782484  0.84906313     2.21500
Zr1938     Zr  0.42990890  0.56254246  0.93002515     2.11130
O1939       O  0.38999869  0.53715769  0.90309889    -2.46480
O1940       O  0.37526183  0.55589670  0.86471242    -0.78510
O1941       O  0.40525796  0.58390807  0.93948564    -0.70700
O1942       O  0.42606592  0.57630329  0.84143850    -2.31660
O1943       O  0.39098130  0.60074942  0.89677577    -2.27870
O1944       O  0.43923468  0.55898756  0.88261469    -0.72460
H1945       H  0.47276499  0.61423068  0.92539681     0.79540
H1946       H  0.42945077  0.57457361  0.82220554     0.80620
H1947       H  0.38060746  0.51951602  0.90774665     0.82850
H1948       H  0.38055448  0.60911300  0.89898683     0.80460
H1949       H  0.48034574  0.57542415  0.82741791     0.43490
H1950       H  0.42896339  0.51928816  0.82105033     0.42460
H1951       H  0.35465316  0.48626109  0.86148971     0.42140
H1952       H  0.32324272  0.50709071  0.90472925     0.40070
H1953       H  0.35606808  0.57512724  0.96507677     0.43210
H1954       H  0.39225664  0.63406199  0.94989188     0.37990
H1955       H  0.48228685  0.66761482  0.92143952     0.44110
H1956       H  0.51369563  0.63885369  0.89540931     0.40520
H1957       H  0.31442397  0.52239705  0.92585430     0.45440
H1958       H  0.41895176  0.65391201  0.96511620     0.44160
H1959       H  0.01220636  0.64872665  0.86707292     0.44300
H1960       H  0.40342694  0.51204505  0.80397309     0.44660
O1961       O  0.00818281  0.90975810  0.63651380    -0.74210
O1962       O  0.03050448  0.93462878  0.67579670    -0.53120
C1963       C  0.01052556  0.92389821  0.65885231     0.79520
O1964       O  0.07235710  0.83841617  0.62608353    -0.58810
O1965       O  0.08838530  0.85064508  0.58381130    -0.51660
C1966       C  0.08005020  0.83434493  0.60251922     0.71530
O1967       O  0.04184925  0.86922755  0.69440759    -0.73370
O1968       O  0.05053940  0.91004796  0.70984715    -0.53940
C1969       C  0.03947103  0.88554670  0.71151237     0.77530
O1970       O  0.02110650  0.86688722  0.56790507    -0.58520
O1971       O  0.05682227  0.87033749  0.54624113    -0.51640
C1972       C  0.03194946  0.86251262  0.54705339     0.74120
Zr1973     Zr  0.03413058  0.89807806  0.60685678     2.54710
O1974       O  0.48860263  0.86443092  0.60551995    -0.79080
O1975       O  0.02359235  0.92083556  0.57440294    -0.92500
Zr1976     Zr  0.06673569  0.87059028  0.65376058     2.64680
O1977       O  0.02749720  0.82864660  0.65486068    -0.97450
O1978       O  0.09047728  0.86014932  0.68646066    -0.79520
O1979       O  0.04360918  0.89331878  0.65211672    -0.82870
O1980       O  0.05528670  0.87315105  0.60791473    -2.17580
O1981       O  0.11541096  0.96263320  0.55946852    -0.66260
O1982       O  0.11157518  0.92354648  0.54361871    -0.50830
C1983       C  0.11771075  0.94744987  0.54093099     0.72510
O1984       O  0.14458961  0.96625159  0.69017613    -0.59170
O1985       O  0.10666755  0.96213919  0.70683018    -0.51150
C1986       C  0.13156531  0.97188102  0.70802699     0.74310
O1987       O  0.15951748  0.92387955  0.61815213    -0.70570
O1988       O  0.13771782  0.90011466  0.57800299    -0.49240
C1989       C  0.15837101  0.91215060  0.59429028     0.75690
O1990       O  0.09629567  0.99491594  0.63624912    -0.65900
O1991       O  0.07732728  0.97851150  0.67612751    -0.53090
C1992       C  0.08708236  0.99655810  0.65995656     0.74070
Zr1993     Zr  0.10056709  0.96243552  0.60530323     2.77540
O1994       O  0.14380635  0.00051546  0.60770116    -0.96640
O1995       O  0.08110402  0.98130125  0.57770247    -0.77470
Zr1996     Zr  0.13338221  0.93402509  0.65025069     2.70070
O1997       O  0.17798048  0.96945277  0.65007376    -0.78710
O1998       O  0.14655776  0.91233134  0.68146689    -0.97800
Zr1999     Zr  0.07222023  0.93579637  0.67256866     2.21500
Zr2000     Zr  0.09372860  0.89483003  0.58216017     2.11130
O2001       O  0.12209891  0.93765493  0.60469684    -2.46480
O2002       O  0.11198095  0.95865492  0.65006418    -0.78510
O2003       O  0.07244281  0.92028680  0.58249249    -0.70700
O2004       O  0.09518127  0.91239229  0.67554619    -2.31660
O2005       O  0.06118381  0.94037707  0.62742524    -2.27870
O2006       O  0.10508325  0.89194389  0.62870214    -0.72460
H2007       H  0.04428410  0.85564053  0.59977807     0.79540
H2008       H  0.09938350  0.91170958  0.69449924     0.80620
H2009       H  0.13779933  0.94628623  0.59469671     0.82850
H2010       H  0.05228094  0.95030182  0.62769997     0.80460
H2011       H  0.08441573  0.86291590  0.70473637     0.43490
H2012       H  0.14505567  0.89708733  0.67000452     0.42460
H2013       H  0.17692551  0.98166129  0.63827782     0.42140
H2014       H  0.15496803  0.99466833  0.59791040     0.40070
H2015       H  0.07336293  0.96895445  0.56101524     0.43210
H2016       H  0.03135309  0.93889439  0.58283474     0.37990
H2017       H  0.48827795  0.85183272  0.61772299     0.44110
H2018       H  0.02116563  0.82279779  0.63537160     0.40520
H2019       H  0.14224620  0.51211282  0.59538741     0.45440
H2020       H  0.00458441  0.91382532  0.57566307     0.44160
H2021       H  0.03365478  0.81681952  0.66016885     0.44300
H2022       H  0.16554348  0.92398735  0.68480412     0.44660
O2023       O  0.14936864  0.61526753  0.82441887    -0.74210
O2024       O  0.18815074  0.61832503  0.81255054    -0.53120
C2025       C  0.16835138  0.62167191  0.80838324     0.79520
O2026       O  0.17251857  0.63038027  0.96184421    -0.58810
O2027       O  0.13688512  0.59145473  0.96853474    -0.51840
C2028       C  0.15231361  0.61593897  0.97479012     0.71530
O2029       O  0.23073895  0.65660222  0.89843692    -0.73370
O2030       O  0.23568920  0.64085506  0.85583491    -0.53940
C2031       C  0.24290741  0.65860577  0.87618830     0.77530
O2032       O  0.09404555  0.57862315  0.88969322    -0.58520
O2033       O  0.09339228  0.56195131  0.93030759    -0.51640
C2034       C  0.08293131  0.56822058  0.91149471     0.74120
Zr2035     Zr  0.13440114  0.59446295  0.86604343     2.54710
O2036       O  0.13213608  0.63404215  0.87554842    -0.79080
O2037       O  0.09757674  0.57561553  0.83264347    -0.92500
Zr2038     Zr  0.19312760  0.62605040  0.92056425     2.64680
O2039       O  0.19344066  0.66715209  0.92214361    -0.97450
O2040       O  0.22765150  0.64216603  0.95641010    -0.79520
O2041       O  0.18007824  0.62043439  0.87322695    -0.82870
O2042       O  0.14743180  0.60200160  0.91295069    -2.17580
O2043       O  0.10743781  0.50083039  0.88578489    -0.66260
O2044       O  0.09321078  0.52207287  0.91476595    -0.50830
C2045       C  0.08920179  0.50302593  0.89724915     0.72510
O2046       O  0.23111836  0.56681784  0.88320188    -0.59170
O2047       O  0.23476251  0.58928229  0.84605865    -0.51150
C2048       C  0.24184704  0.57681319  0.86097294     0.74310
O2049       O  0.17483360  0.53212894  0.95058649    -0.70570
O2050       O  0.13726035  0.53261841  0.96083080    -0.49240
C2051       C  0.15322226  0.52385092  0.96334584     0.75690
O2052       O  0.17383970  0.53348751  0.82828477    -0.65900
O2053       O  0.18901987  0.56855233  0.80580779    -0.53090
C2054       C  0.17793257  0.54379934  0.80567202     0.74070
Zr2055     Zr  0.14058963  0.53108053  0.85880027     2.77540
O2056       O  0.13682090  0.98809196  0.85559122    -0.96640
O2057       O  0.10686750  0.51728867  0.82224203    -0.77470
Zr2058     Zr  0.19774496  0.56288274  0.91521883     2.70070
O2059       O  0.21176347  0.53112042  0.91933836    -0.78710
O2060       O  0.23188427  0.59059418  0.94997598    -0.97800
Zr2061     Zr  0.19836799  0.59718384  0.84884021     2.21500
Zr2062     Zr  0.13376580  0.56097089  0.92964458     2.11130
O2063       O  0.15248581  0.53762417  0.90611573    -2.46480
O2064       O  0.18579825  0.55669781  0.86734495    -0.78510
O2065       O  0.12180806  0.55400257  0.88182118    -0.70700
O2066       O  0.21183380  0.60326033  0.89701255    -2.31660
O2067       O  0.15223502  0.57124929  0.84140667    -2.27870
O2068       O  0.17969128  0.58611019  0.93948451    -0.72460
H2069       H  0.13906468  0.61082493  0.92202271     0.79540
H2070       H  0.23059529  0.61310834  0.89928090     0.80620
H2071       H  0.14637861  0.52062744  0.91191553     0.82850
H2072       H  0.14729365  0.56877905  0.82205275     0.80460
H2073       H  0.24285937  0.64309387  0.94684588     0.43490
H2074       H  0.22683137  0.58095262  0.96654329     0.42460
H2075       H  0.19977070  0.51610913  0.90641596     0.42140
H2076       H  0.15338596  0.99036279  0.84823771     0.40070
H2077       H  0.11572218  0.52696281  0.80639870     0.43210
H2078       H  0.10312188  0.56837900  0.81667266     0.37990
H2079       H  0.15017215  0.64815723  0.87368912     0.44110
H2080       H  0.17508187  0.66270154  0.92453956     0.40520
H2081       H  0.13774437  0.98428740  0.87481156     0.45440
H2082       H  0.09697479  0.59057351  0.82603983     0.44160
H2083       H  0.20258248  0.67662760  0.93993539     0.44300
H2084       H  0.24739914  0.58968177  0.94371119     0.44660
O2085       O  0.03476943  0.67601451  0.70881058    -0.74210
O2086       O  0.04328994  0.64582790  0.72473008    -0.53120
C2087       C  0.03045375  0.65818851  0.72484075     0.79520
O2088       O  0.02887992  0.64777441  0.58059716    -0.58810
O2089       O  0.06654184  0.68039174  0.56610833    -0.51840
C2090       C  0.04207790  0.66336141  0.56299510     0.71530
O2091       O  0.00788551  0.61162325  0.65932765    -0.73370
O2092       O  0.02843728  0.59837160  0.68681064    -0.53940
C2093       C  0.00842623  0.59401258  0.67203961     0.77530
O2094       O  0.07146983  0.73211164  0.64266295    -0.58520
O2095       O  0.09220826  0.73064558  0.60342973    -0.51640
C2096       C  0.08142259  0.74058318  0.61944244     0.74120
Zr2097     Zr  0.06616384  0.69878552  0.67338406     2.54710
O2098       O  0.03158955  0.70977961  0.67678677    -0.79080
O2099       O  0.09036687  0.73430736  0.70886747    -0.92500
Zr2100     Zr  0.03575402  0.63418712  0.62306774     2.64680
O2101       O  0.49087236  0.62486501  0.61626308    -0.97450
O2102       O  0.02421622  0.59445229  0.59369613    -0.79520
O2103       O  0.04397716  0.65301920  0.66892272    -0.82870
O2104       O  0.05719048  0.68004431  0.62674392    -2.17580
O2105       O  0.15981447  0.73590586  0.64680680    -0.66260
O2106       O  0.14097958  0.73030579  0.60392209    -0.50830
C2107       C  0.15961386  0.74276900  0.62230490     0.72510
O2108       O  0.09845679  0.60211198  0.65289414    -0.59170
O2109       O  0.07482579  0.60025064  0.69060511    -0.51150
C2110       C  0.08691136  0.59180243  0.67446609     0.74310
O2111       O  0.12174726  0.64723470  0.58201051    -0.70570
O2112       O  0.11746957  0.68023689  0.56707430    -0.49240
C2113       C  0.12459581  0.66289263  0.56428903     0.75690
O2114       O  0.14179012  0.67712547  0.71109154    -0.65900
O2115       O  0.10305525  0.64610732  0.72587872    -0.53090
C2116       C  0.12820702  0.65876961  0.72655785     0.74070
Zr2117     Zr  0.13330765  0.70004259  0.67553445     2.77540
O2118       O  0.17874979  0.71062685  0.67865048    -0.96640
O2119       O  0.14332388  0.73427679  0.71234570    -0.77470
Zr2120     Zr  0.10308215  0.63566572  0.62539950     2.70070
O2121       O  0.14540941  0.63812019  0.62817871    -0.78710
O2122       O  0.08330135  0.59549757  0.59510177    -0.97800
Zr2123     Zr  0.07009377  0.63885595  0.69094278     2.21500
Zr2124     Zr  0.09795077  0.69320427  0.60554971     2.11130
O2125       O  0.12575806  0.68148301  0.62889701    -2.46480
O2126       O  0.11132101  0.65423883  0.67113714    -0.78510
O2127       O  0.10662681  0.71272804  0.65232939    -0.70700
O2128       O  0.06187032  0.62015762  0.64437340    -2.31660
O2129       O  0.09255228  0.68558828  0.69695194    -2.27870
O2130       O  0.07589382  0.64729187  0.60182423    -0.72460
H2131       H  0.04678930  0.68575143  0.61742322     0.79540
H2132       H  0.05308532  0.60150493  0.64330125     0.80620
H2133       H  0.14219493  0.68761939  0.62013118     0.82850
H2134       H  0.09507860  0.69167621  0.71631681     0.80460
H2135       H  0.02502005  0.58228031  0.60571545     0.43490
H2136       H  0.07624399  0.59935284  0.57884996     0.42460
H2137       H  0.15517304  0.65177941  0.64337146     0.42140
H2138       H  0.18340297  0.70888399  0.65935765     0.40070
H2139       H  0.14700076  0.74957140  0.70264112     0.43210
H2140       H  0.07834827  0.73060579  0.72417829     0.37990
H2141       H  0.01834536  0.69781440  0.66238576     0.44110
H2142       H  0.49208554  0.64193634  0.61523062     0.40520
H2143       H  0.18866831  0.72943682  0.68444527     0.45440
H2144       H  0.09112003  0.74956767  0.70136607     0.44160
H2145       H  0.48498651  0.61589030  0.59746722     0.44300
H2146       H  0.09820283  0.59374875  0.58822214     0.44660
O2147       O  0.32405175  0.96695897  0.68904148    -0.74210
O2148       O  0.35979158  0.96512730  0.70378716    -0.53120
C2149       C  0.34351233  0.97358037  0.70604428     0.79520
O2150       O  0.26507852  0.84110921  0.62827332    -0.58810
O2151       O  0.26181234  0.85162042  0.58486456    -0.51840
C2152       C  0.25298476  0.83695743  0.60493934     0.71530
O2153       O  0.32568678  0.87231576  0.69659227    -0.73370
O2154       O  0.35984591  0.91276911  0.70781511    -0.53940
C2155       C  0.34531612  0.88899416  0.71236486     0.77530
O2156       O  0.26778525  0.92700697  0.61567928    -0.58520
O2157       O  0.26385897  0.90058406  0.57694804    -0.51640
C2158       C  0.25612325  0.91384031  0.59275241     0.74120
Zr2159     Zr  0.30494912  0.93796160  0.64642431     2.54710
O2160       O  0.26865911  0.92166563  0.67692796    -0.79080
O2161       O  0.30345947  0.97733754  0.64034164    -0.92500
Zr2162     Zr  0.30487205  0.87261612  0.65333204     2.64680
O2163       O  0.27165010  0.86392858  0.68692281    -0.97450
O2164       O  0.30116920  0.83011379  0.65325600    -0.79520
O2165       O  0.31998427  0.91570890  0.67276781    -0.82870
O2166       O  0.28900417  0.89458957  0.62767714    -2.17580
O2167       O  0.34821599  0.95979831  0.55444913    -0.66260
O2168       O  0.31240276  0.92080080  0.54032849    -0.50830
C2169       C  0.33030685  0.94437889  0.53662594     0.72510
O2170       O  0.40410114  0.91142867  0.63224065    -0.59170
O2171       O  0.40519651  0.93400680  0.67294576    -0.51150
C2172       C  0.41519378  0.92450903  0.65533320     0.74310
O2173       O  0.34414154  0.86300285  0.56587440    -0.70570
O2174       O  0.30906555  0.86375921  0.54756738    -0.49240
C2175       C  0.32559232  0.85523152  0.54764593     0.75690
O2176       O  0.40315728  0.99057506  0.62723453    -0.65900
O2177       O  0.40473598  0.97913917  0.67011800    -0.53090
C2178       C  0.41418486  0.99471976  0.65131677     0.74070
Zr2179     Zr  0.36450986  0.95970704  0.59909356     2.77540
O2180       O  0.40101582  0.97249418  0.56899608    -0.96640
O2181       O  0.36487129  0.00066794  0.59858787    -0.77470
Zr2182     Zr  0.36387293  0.89460666  0.60486533     2.70070
O2183       O  0.39634372  0.90850419  0.56989803    -0.78710
O2184       O  0.36994807  0.85830040  0.61379137    -0.97800
Zr2185     Zr  0.36600953  0.93723530  0.66891271     2.21500
Zr2186     Zr  0.30174748  0.89394424  0.58066877     2.11130
O2187       O  0.34832963  0.91646350  0.57896077    -2.46480
O2188       O  0.38068676  0.93789630  0.62336849    -0.78510
O2189       O  0.31844904  0.93783772  0.60045766    -0.70700
O2190       O  0.35059869  0.89357802  0.65047205    -2.31660
O2191       O  0.35075452  0.96035840  0.64427283    -2.27870
O2192       O  0.31791768  0.87223819  0.60714952    -0.72460
H2193       H  0.27026485  0.88599145  0.62830952     0.79540
H2194       H  0.35817980  0.88533331  0.66035379     0.80620
H2195       H  0.35349450  0.91632919  0.56015033     0.82850
H2196       H  0.35808394  0.97811993  0.65201840     0.80460
H2197       H  0.31779308  0.83242059  0.64603804     0.43490
H2198       H  0.35250106  0.84281294  0.61031700     0.42460
H2199       H  0.40792036  0.92722376  0.57520303     0.42140
H2200       H  0.39427614  0.95937039  0.55284160     0.40070
H2201       H  0.34623821  0.99580042  0.59756272     0.43210
H2202       H  0.32143828  0.99160433  0.64497126     0.37990
H2203       H  0.27568026  0.91873235  0.69385693     0.44110
H2204       H  0.25847692  0.86669234  0.67757626     0.40520
H2205       H  0.40334695  0.98852000  0.56184287     0.45440
H2206       H  0.29311689  0.97888102  0.65566250     0.44160
H2207       H  0.26299034  0.84498284  0.68793551     0.44300
H2208       H  0.38032012  0.85687965  0.59843319     0.44660
C2209       C  0.47190835  0.56011401  0.64191263     0.24670
C2210       C  0.48518013  0.56790589  0.66786006    -0.23430
C2211       C  0.47585732  0.55066004  0.68838100     0.19580
C2212       C  0.45280157  0.52667566  0.68330434     0.24620
C2213       C  0.43921557  0.51933578  0.65728938    -0.23380
C2214       C  0.44968344  0.53627972  0.63654862     0.19520
F2215       F  0.43849479  0.53015689  0.61067985    -0.13340
F2216       F  0.48055157  0.57552075  0.62107975    -0.15700
F2217       F  0.44377242  0.51091099  0.70392459    -0.15700
F2218       F  0.48850616  0.55721865  0.71346903    -0.13340
C2219       C  0.19844107  0.76741014  0.59369297     0.24670
C2220       C  0.18213690  0.76723712  0.61495771    -0.23430
C2221       C  0.18728727  0.79083081  0.62917910     0.19580
C2222       C  0.20903010  0.81402307  0.62330719     0.24620
C2223       C  0.22639777  0.81417792  0.60333844    -0.23380
C2224       C  0.22065062  0.79070570  0.58816096     0.19520
F2225       F  0.23746875  0.79005369  0.56950619    -0.13340
F2226       F  0.19371961  0.74483330  0.57946732    -0.15700
F2227       F  0.21412952  0.83635543  0.63841904    -0.15700
F2228       F  0.17145469  0.79134863  0.64918131    -0.13340
C2229       C  0.13095940  0.62328008  0.74787193     0.24670
C2230       C  0.14193837  0.64995187  0.74512988    -0.23430
C2231       C  0.16548698  0.66716800  0.76021447     0.19580
C2232       C  0.17632793  0.65797488  0.77929006     0.24620
C2233       C  0.16440302  0.63134556  0.78269629    -0.23380
C2234       C  0.14220453  0.61417776  0.76595563     0.19520
F2235       F  0.12996151  0.58841105  0.76890333    -0.13340
F2236       F  0.10865135  0.60574131  0.73360523    -0.15700
F2237       F  0.19728281  0.67518681  0.79575316    -0.15700
F2238       F  0.17696088  0.69298253  0.75798179    -0.13340
C2239       C  0.16247930  0.64021200  0.52104534     0.24670
C2240       C  0.14603139  0.62949731  0.99730734    -0.23430
C2241       C  0.12590461  0.63522128  0.99340712     0.19580
C2242       C  0.12096553  0.64980398  0.51414449     0.24620
C2243       C  0.13597352  0.65856017  0.53899548    -0.23380
C2244       C  0.15742902  0.65453136  0.54181458     0.19520
F2245       F  0.17224355  0.66279069  0.56571053    -0.13340
F2246       F  0.18279762  0.63592017  0.52453480    -0.15700
F2247       F  0.10036778  0.65363012  0.51084856    -0.15700
F2248       F  0.11099990  0.62655078  0.96958229    -0.13340
C2249       C  0.15418999  0.97749520  0.51314255     0.24670
C2250       C  0.12739859  0.95987286  0.51495890    -0.23430
C2251       C  0.10967234  0.96240319  0.49805579     0.19580
C2252       C  0.11819793  0.98277457  0.98112278     0.24620
C2253       C  0.14488031  0.50135832  0.98040879    -0.23380
C2254       C  0.16287626  0.99773120  0.99574857     0.19520
F2255       F  0.18875507  0.51483193  0.99548470    -0.13340
F2256       F  0.17183039  0.97644575  0.53003312    -0.15700
F2257       F  0.10006802  0.98461806  0.96585801    -0.15700
F2258       F  0.08367731  0.94647748  0.49994452    -0.13340
C2259       C  0.13446009  0.98413864  0.75791581     0.24670
C2260       C  0.14554058  0.99024710  0.73236963    -0.23430
C2261       C  0.16833753  0.51426450  0.73060887     0.19580
C2262       C  0.17926532  0.53217349  0.75422900     0.24620
C2263       C  0.16780944  0.52591317  0.77986990    -0.23380
C2264       C  0.14542360  0.50149389  0.78114861     0.19520
F2265       F  0.13313553  0.49434461  0.80485257    -0.13340
F2266       F  0.11264056  0.96109319  0.76050194    -0.15700
F2267       F  0.20099360  0.55531283  0.75208740    -0.15700
F2268       F  0.17939485  0.02071633  0.70598820    -0.13340
C2269       C  0.06373697  0.54434598  0.67875418     0.24670
C2270       C  0.08722188  0.56792319  0.67928205    -0.23430
C2271       C  0.11084783  0.56764497  0.67691046     0.19580
C2272       C  0.11086148  0.54426857  0.67161504     0.24620
C2273       C  0.08729430  0.52081851  0.66902471    -0.23380
C2274       C  0.06379550  0.52085921  0.67378724     0.19520
F2275       F  0.04076961  0.99829023  0.67133062    -0.13340
F2276       F  0.04064185  0.54409890  0.68018882    -0.15700
F2277       F  0.13380875  0.54453750  0.66806763    -0.15700
F2278       F  0.13381890  0.59021438  0.67783200    -0.13340
C2279       C  0.05646804  0.78687009  0.60678555     0.24670
C2280       C  0.07888032  0.80866959  0.59854048    -0.23430
C2281       C  0.10148106  0.80675148  0.59442423     0.19580
C2282       C  0.10207115  0.78419443  0.60003284     0.24620
C2283       C  0.08021214  0.76334017  0.61048659    -0.23380
C2284       C  0.05720662  0.76469344  0.61297289     0.19520
F2285       F  0.03545502  0.74465864  0.62196441    -0.13340
F2286       F  0.03409741  0.78771241  0.61055468    -0.15700
F2287       F  0.12464142  0.78356048  0.59724813    -0.15700
F2288       F  0.12364519  0.82748108  0.58740503    -0.13340
C2289       C  0.20676899  0.93655101  0.59313414     0.24670
C2290       C  0.18330034  0.91340781  0.58607681    -0.23430
C2291       C  0.18462707  0.89130825  0.57569742     0.19580
C2292       C  0.20872964  0.89165193  0.57553601     0.24620
C2293       C  0.23183267  0.91426070  0.58536941    -0.23380
C2294       C  0.23062748  0.93699939  0.59269806     0.19520
F2295       F  0.25256988  0.95955434  0.60105223    -0.13340
F2296       F  0.20650721  0.95865537  0.60194461    -0.15700
F2297       F  0.20910581  0.86938531  0.56807793    -0.15700
F2298       F  0.16250077  0.86890759  0.56779164    -0.13340
C2299       C  0.47395764  0.92404244  0.68558625     0.24670
C2300       C  0.48936755  0.92986585  0.66242831    -0.23430
C2301       C  0.48211329  0.93799721  0.63945578     0.19580
C2302       C  0.45863359  0.93782630  0.63832495     0.24620
C2303       C  0.44193578  0.92979367  0.66027796    -0.23380
C2304       C  0.45017071  0.92410292  0.68454522     0.19520
F2305       F  0.43436420  0.91658805  0.70610843    -0.13340
F2306       F  0.48083331  0.91637396  0.70804472    -0.15700
F2307       F  0.45147089  0.94410799  0.61494537    -0.15700
F2308       F  0.49709002  0.94445846  0.61712002    -0.13340
C2309       C  0.02879336  0.64377847  0.51509523     0.24670
C2310       C  0.02690917  0.65920447  0.53736896    -0.23430
C2311       C  0.50449729  0.66184377  0.53885335     0.19580
C2312       C  0.48384539  0.64828227  0.51913187     0.24620
C2313       C  0.48502439  0.63134334  0.99803826    -0.23380
C2314       C  0.00810948  0.63011807  0.99552085     0.19520
F2315       F  0.01065631  0.61576487  0.97391144    -0.13340
F2316       F  0.04965579  0.64004857  0.51369457    -0.15700
F2317       F  0.46221130  0.65070593  0.52140086    -0.15700
F2318       F  0.50184415  0.67601562  0.56065841    -0.13340
C2319       C  0.48192034  0.65878375  0.77735456     0.24670
C2320       C  0.46877729  0.63268754  0.78304423    -0.23430
C2321       C  0.47437869  0.61513685  0.76764907     0.19580
C2322       C  0.99387611  0.62355916  0.74856245     0.24620
C2323       C  0.00828264  0.64986008  0.74379775    -0.23380
C2324       C  0.50125648  0.66725324  0.75750156     0.19520
F2325       F  0.51424234  0.69267383  0.75310099    -0.13340
F2326       F  0.47735972  0.67631118  0.79228726    -0.15700
F2327       F  0.99913335  0.60584457  0.73523782    -0.15700
F2328       F  0.46228292  0.58986935  0.77281774    -0.13340
C2329       C  0.36664019  0.98037601  0.47813619     0.24670
C2330       C  0.35816122  0.49865476  0.97706777    -0.23430
C2331       C  0.33565228  0.99427590  0.99122027     0.19580
C2332       C  0.32353811  0.97359908  0.50796797     0.24620
C2333       C  0.33301877  0.95623397  0.51028186    -0.23380
C2334       C  0.35415242  0.95944738  0.49430069     0.19520
F2335       F  0.36448289  0.94373248  0.49663344    -0.13340
F2336       F  0.38752452  0.48305708  0.46397218    -0.15700
F2337       F  0.30405739  0.97200045  0.52399920    -0.15700
F2338       F  0.32648729  0.51111158  0.99050719    -0.13340
C2339       C  0.34327321  0.99926648  0.77930876     0.24670
C2340       C  0.35912820  0.52642314  0.77872514    -0.23430
C2341       C  0.36776843  0.53601375  0.75299334     0.19580
C2342       C  0.36183436  0.51885615  0.72896473     0.24620
C2343       C  0.34735316  0.99192181  0.73027616    -0.23380
C2344       C  0.33786349  0.98235909  0.75548656     0.19520
F2345       F  0.32395707  0.95641504  0.75721929    -0.13340
F2346       F  0.33358672  0.98868928  0.80316921    -0.15700
F2347       F  0.37114748  0.52847498  0.70460627    -0.15700
F2348       F  0.38295849  0.56181198  0.75120254    -0.13340
C2349       C  0.04045516  0.55614066  0.88956792     0.24670
C2350       C  0.05609068  0.56311055  0.91388634    -0.23430
C2351       C  0.04680573  0.56797049  0.93899500     0.19580
C2352       C  0.02338360  0.56859658  0.93911518     0.24620
C2353       C  0.00973046  0.56510231  0.91405175    -0.23380
C2354       C  0.01771324  0.55747188  0.88958016     0.19520
F2355       F  0.00378936  0.55196089  0.86537811    -0.13340
F2356       F  0.04788235  0.54922377  0.86536588    -0.15700
F2357       F  0.01506045  0.57421014  0.96332141    -0.15700
F2358       F  0.06120799  0.57396494  0.96290810    -0.13340
C2359       C  0.28687900  0.59490624  0.84364353     0.24670
C2360       C  0.26446813  0.57405663  0.85299096    -0.23430
C2361       C  0.26511816  0.55164481  0.85853207     0.19580
C2362       C  0.28846861  0.55125172  0.85797320     0.24620
C2363       C  0.31163624  0.57335493  0.85210226    -0.23380
C2364       C  0.31045217  0.59465176  0.84337394     0.19520
F2365       F  0.33244161  0.61616623  0.83723298    -0.13340
F2366       F  0.28658648  0.61644971  0.83725142    -0.15700
F2367       F  0.28870571  0.52975362  0.86480849    -0.15700
F2368       F  0.24337117  0.53056128  0.86595167    -0.13340
C2369       C  0.47389902  0.84706375  0.00173924     0.24670
C2370       C  0.46824502  0.82422932  0.98553684    -0.23430
C2371       C  0.48498189  0.81381536  0.98872536     0.19580
C2372       C  0.00661213  0.82603679  0.50810817     0.24620
C2373       C  0.01297148  0.84997043  0.52279704    -0.23380
C2374       C  0.99646248  0.86034314  0.51858587     0.19520
F2375       F  0.00234283  0.88393816  0.53097661    -0.13340
F2376       F  0.45900484  0.85833618  0.99872043    -0.15700
F2377       F  0.02112032  0.81461819  0.51238188    -0.15700
F2378       F  0.48076278  0.79230349  0.97258551    -0.13340
C2379       C  0.49470571  0.86581479  0.72821374     0.24670
C2380       C  0.02138692  0.87526417  0.73367366    -0.23430
C2381       C  0.03052742  0.87609990  0.76047800     0.19580
C2382       C  0.01306876  0.86754333  0.78171027     0.24620
C2383       C  0.48644779  0.85858986  0.77635219    -0.23380
C2384       C  0.47734819  0.85774624  0.74950743     0.19520
F2385       F  0.45168451  0.84915309  0.74399934    -0.13340
F2386       F  0.48562705  0.86503401  0.70236084    -0.15700
F2387       F  0.02222242  0.86891582  0.80769088    -0.15700
F2388       F  0.05632697  0.88554839  0.76608621    -0.13340
C2389       C  0.39707799  0.93797028  0.88174477     0.24670
C2390       C  0.41982296  0.93766226  0.87400798    -0.23430
C2391       C  0.44418317  0.96012424  0.87841817     0.19580
C2392       C  0.44568012  0.98275924  0.89082057     0.24620
C2393       C  0.42291495  0.98266167  0.89917928    -0.23380
C2394       C  0.39871647  0.96009825  0.89502750     0.19520
F2395       F  0.37644743  0.96025267  0.90184325    -0.13340
F2396       F  0.37336067  0.91627246  0.87761119    -0.15700
F2397       F  0.46896514  0.50496605  0.89349451    -0.15700
F2398       F  0.46637399  0.95979818  0.87179511    -0.13340
C2399       C  0.40553136  0.71227243  0.85592835     0.24670
C2400       C  0.40550533  0.72532479  0.88152981    -0.23430
C2401       C  0.40371036  0.71363060  0.90579745     0.19580
C2402       C  0.40381972  0.69033546  0.90473210     0.24620
C2403       C  0.40609797  0.67837813  0.87937963    -0.23380
C2404       C  0.40595430  0.68905405  0.85489974     0.19520
F2405       F  0.40748688  0.67778015  0.83008124    -0.13340
F2406       F  0.40571565  0.72220533  0.83180528    -0.15700
F2407       F  0.40222157  0.67980520  0.92879575    -0.15700
F2408       F  0.40318436  0.72527498  0.93080509    -0.13340
C2409       C  0.03369256  0.94612730  0.85671099     0.24670
C2410       C  0.01361531  0.94058672  0.87458484    -0.23430
C2411       C  0.01723563  0.95720238  0.89838507     0.19580
C2412       C  0.04169292  0.97836042  0.90551744     0.24620
C2413       C  0.06267659  0.98261421  0.88901034    -0.23380
C2414       C  0.05817942  0.96698007  0.86384684     0.19520
F2415       F  0.07762629  0.97103424  0.84656168    -0.13340
F2416       F  0.03024849  0.92988244  0.83382040    -0.15700
F2417       F  0.04511465  0.99345407  0.92935166    -0.15700
F2418       F  0.99748122  0.95172084  0.91569036    -0.13340
C2419       C  0.31405072  0.70612204  0.86948228     0.24670
C2420       C  0.31582174  0.72838283  0.88379584    -0.23430
C2421       C  0.29342933  0.72827341  0.89327417     0.19580
C2422       C  0.26938826  0.70584479  0.88916757     0.24620
C2423       C  0.26743241  0.68309324  0.87553841    -0.23380
C2424       C  0.28991275  0.68347894  0.86542220     0.19520
F2425       F  0.28866916  0.66182236  0.85253056    -0.13340
F2426       F  0.33563035  0.70648176  0.85925431    -0.15700
F2427       F  0.24794476  0.70636385  0.89853125    -0.15700
F2428       F  0.29483949  0.75015164  0.90594962    -0.13340
C2429       C  0.32557465  0.82539671  0.97565031     0.24670
C2430       C  0.34333773  0.81629931  0.97992815    -0.23430
C2431       C  0.34843921  0.81334077  0.50701164     0.19580
C2432       C  0.33928185  0.82285200  0.52925572     0.24620
C2433       C  0.32561495  0.83645259  0.52492455    -0.23380
C2434       C  0.31720064  0.83577278  0.99781949     0.19520
F2435       F  0.30325615  0.84755614  0.99242727    -0.13340
F2436       F  0.31871647  0.82702415  0.94962321    -0.15700
F2437       F  0.34582455  0.82070395  0.55520227    -0.15700
F2438       F  0.36471556  0.80405136  0.51214837    -0.13340
C2439       C  0.33707684  0.85554469  0.74549188     0.24670
C2440       C  0.35325950  0.88007964  0.73625173    -0.23430
C2441       C  0.37855520  0.89538776  0.74848196     0.19580
C2442       C  0.38761097  0.88635845  0.76875816     0.24620
C2443       C  0.37169993  0.86167284  0.77781701    -0.23380
C2444       C  0.34615707  0.84647534  0.76609999     0.19520
F2445       F  0.32997422  0.82264787  0.77418257    -0.13340
F2446       F  0.31248515  0.84015019  0.73452753    -0.15700
F2447       F  0.41228354  0.90218116  0.77936558    -0.15700
F2448       F  0.39526554  0.91906499  0.74034914    -0.13340
O2449       O  0.86609893  0.33203636  0.31098301    -0.74210
O2450       O  0.90618316  0.36661813  0.30675614    -0.53120
C2451       C  0.88188673  0.35264646  0.29977228     0.79520
O2452       O  0.86859726  0.33868195  0.44510264    -0.58810
O2453       O  0.87020893  0.30227475  0.45232297    -0.51840
C2454       C  0.86171147  0.31857463  0.45770248     0.71530
O2455       O  0.90652504  0.39915666  0.39088950    -0.73370
O2456       O  0.92975288  0.40678317  0.35200878    -0.53940
C2457       C  0.91845666  0.41282588  0.37140991     0.77530
O2458       O  0.84156272  0.26558786  0.36321993    -0.58520
O2459       O  0.85607363  0.26068454  0.40475428    -0.51640
C2460       C  0.83964517  0.25303944  0.38401259     0.74120
Zr2461     Zr  0.86954952  0.30695308  0.34644116     2.54710
O2462       O  0.82674384  0.30330699  0.34981129    -0.79080
O2463       O  0.85627232  0.27604756  0.30559600    -0.92500
Zr2464     Zr  0.89617206  0.35992589  0.40926379     2.64680
O2465       O  0.85766677  0.36471049  0.40551472    -0.97450
O2466       O  0.91362066  0.39126109  0.44975261    -0.79520
O2467       O  0.89119921  0.35151727  0.36083826    -0.82870
O2468       O  0.87314768  0.31539055  0.39528154    -2.17580
O2469       O  0.92017707  0.26445213  0.36228207    -0.66260
O2470       O  0.90162234  0.26018248  0.40410470    -0.50830
C2471       C  0.90913964  0.25164545  0.38281467     0.72510
O2472       O  0.99079672  0.40157169  0.39251927    -0.59170
O2473       O  0.97523214  0.40708104  0.35223852    -0.51150
C2474       C  0.99175583  0.41473476  0.37267531     0.74310
O2475       O  0.96922250  0.33731624  0.44290079    -0.70570
O2476       O  0.92919637  0.30612443  0.45473892    -0.49240
C2477       C  0.95430821  0.32089257  0.45895865     0.75690
O2478       O  0.96402727  0.33132498  0.31090167    -0.65900
O2479       O  0.95879992  0.36622589  0.30560314    -0.53090
C2480       C  0.96850213  0.35149355  0.29899245     0.74070
Zr2481     Zr  0.93580050  0.30663912  0.34658799     2.77540
O2482       O  0.97434006  0.30181750  0.34961117    -0.96640
O2483       O  0.91858351  0.27668312  0.30506021    -0.77470
Zr2484     Zr  0.96284641  0.36009947  0.40866894     2.70070
O2485       O  0.00598882  0.36459856  0.40521827    -0.78710
O2486       O  0.97665584  0.39189894  0.44876781    -0.97800
Zr2487     Zr  0.93373133  0.36843382  0.34396940     2.21500
Zr2488     Zr  0.89841076  0.29891552  0.41506170     2.11130
O2489       O  0.94029194  0.31512487  0.39534375    -2.46480
O2490       O  0.95945637  0.35141373  0.36033212    -0.78510
O2491       O  0.89441099  0.29046560  0.36561567    -0.70700
O2492       O  0.93824866  0.37784488  0.39262494    -2.31660
O2493       O  0.91125253  0.32373014  0.32784063    -2.27870
O2494       O  0.92154523  0.34401036  0.42879802    -0.72460
H2495       H  0.85575057  0.30752146  0.40199402     0.79540
H2496       H  0.94710358  0.39619924  0.39816545     0.80620
H2497       H  0.94931834  0.30676102  0.40210466     0.82850
H2498       H  0.91007265  0.32116843  0.30793927     0.80460
H2499       H  0.92989847  0.40580691  0.44380989     0.43490
H2500       H  0.96100580  0.38625727  0.45980986     0.42460
H2501       H  0.50397629  0.35166322  0.38987161     0.42140
H2502       H  0.97395387  0.29553012  0.36785705     0.40070
H2503       H  0.89977793  0.26584433  0.30805269     0.43210
H2504       H  0.86521408  0.28654545  0.29027941     0.37990
H2505       H  0.83040230  0.32128292  0.35464848     0.44110
H2506       H  0.84280964  0.34679907  0.40340120     0.40520
H2507       H  0.97047561  0.28680575  0.33619705     0.45440
H2508       H  0.83766182  0.27056280  0.30212339     0.44160
H2509       H  0.85619707  0.37193241  0.42406715     0.44300
H2510       H  0.98876736  0.38878800  0.45971797     0.44660
O2511       O  0.91979678  0.15392936  0.40180593    -0.74210
O2512       O  0.90311153  0.13949473  0.35761678    -0.53120
C2513       C  0.90993667  0.15579010  0.37928891     0.79520
O2514       O  0.98852785  0.08277021  0.39096337    -0.58810
O2515       O  0.97157498  0.06434676  0.43056662    -0.51840
C2516       C  0.98863479  0.07124844  0.41209989     0.71530
O2517       O  0.96928001  0.11970863  0.32625282    -0.73370
O2518       O  0.93231756  0.11998046  0.31306392    -0.53940
C2519       C  0.95587708  0.12440641  0.30936293     0.77530
O2520       O  0.95688659  0.13134959  0.46422224    -0.58520
O2521       O  0.95557452  0.09304004  0.46979413    -0.51640
C2522       C  0.96387289  0.11739668  0.47656750     0.74120
Zr2523     Zr  0.93066740  0.12538844  0.42316207     2.54710
O2524       O  0.96747006  0.16927489  0.42875489    -0.79080
O2525       O  0.90761299  0.13521259  0.45947252    -0.92500
Zr2526     Zr  0.96502963  0.10096205  0.36918555     2.64680
O2527       O  0.00254632  0.14290716  0.38402904    -0.97450
O2528       O  0.99241613  0.09237684  0.33755886    -0.79520
O2529       O  0.94120459  0.12318720  0.37606479    -0.82870
O2530       O  0.95598736  0.10488232  0.41566425    -2.17580
O2531       O  0.85845063  0.02803088  0.44624932    -0.66260
O2532       O  0.89741843  0.03225532  0.45982808    -0.50830
C2533       C  0.87229445  0.02138804  0.46038885     0.72510
O2534       O  0.86530872  0.03203466  0.32724189    -0.59170
O2535       O  0.88251614  0.06831419  0.30634575    -0.51150
C2536       C  0.86925029  0.04340511  0.30532184     0.74310
O2537       O  0.91254651  0.00857709  0.37781984    -0.70570
O2538       O  0.92947845  0.02201053  0.42204749    -0.49240
C2539       C  0.92206263  0.00624773  0.40015626     0.75690
O2540       O  0.83721842  0.06473793  0.38130207    -0.65900
O2541       O  0.85653968  0.08843634  0.34510646    -0.53090
C2542       C  0.83680171  0.07549798  0.35961313     0.74070
Zr2543     Zr  0.86605572  0.05893346  0.41192295     2.77540
O2544       O  0.82153710  0.02283582  0.40736247    -0.96640
O2545       O  0.85299955  0.08082111  0.44764089    -0.77470
Zr2546     Zr  0.89973244  0.03504043  0.35630114     2.70070
O2547       O  0.86797563  0.48919496  0.34773534    -0.78710
O2548       O  0.91838607  0.02672250  0.31466750    -0.97800
Zr2549     Zr  0.90128129  0.09782484  0.34906312     2.21500
Zr2550     Zr  0.92990890  0.06254247  0.43002516     2.11130
O2551       O  0.88999869  0.03715769  0.40309889    -2.46480
O2552       O  0.87526183  0.05589670  0.36471242    -0.78510
O2553       O  0.90525796  0.08390807  0.43948564    -0.70700
O2554       O  0.92606593  0.07630329  0.34143850    -2.31660
O2555       O  0.89098130  0.10074942  0.39677576    -2.27870
O2556       O  0.93923469  0.05898756  0.38261470    -0.72460
H2557       H  0.97276498  0.11423069  0.42539681     0.79540
H2558       H  0.92945078  0.07457361  0.32220555     0.80620
H2559       H  0.88060746  0.01951602  0.40774666     0.82850
H2560       H  0.88055447  0.10911300  0.39898682     0.80460
H2561       H  0.98034575  0.07542415  0.32741792     0.43490
H2562       H  0.92896344  0.01928820  0.32105035     0.42460
H2563       H  0.85465316  0.98626110  0.36148974     0.42140
H2564       H  0.82324272  0.00709071  0.40472925     0.40070
H2565       H  0.85606807  0.07512724  0.46507677     0.43210
H2566       H  0.89225663  0.13406199  0.44989187     0.37990
H2567       H  0.98228684  0.16761483  0.42143951     0.44110
H2568       H  0.01369563  0.13885370  0.39540932     0.40520
H2569       H  0.81442397  0.02239705  0.42585429     0.45440
H2570       H  0.91895175  0.15391201  0.46511620     0.44160
H2571       H  0.51220636  0.14872661  0.36707290     0.44300
H2572       H  0.90342695  0.01204500  0.30397313     0.44660
O2573       O  0.50818278  0.40975796  0.13651383    -0.74210
O2574       O  0.53050448  0.43462878  0.17579665    -0.53120
C2575       C  0.51052554  0.42389813  0.15885229     0.79520
O2576       O  0.57235709  0.33841616  0.12608352    -0.58810
O2577       O  0.58838530  0.35064508  0.08381129    -0.51660
C2578       C  0.58005020  0.33434493  0.10251921     0.71530
O2579       O  0.54184924  0.36922755  0.19440758    -0.73370
O2580       O  0.55053939  0.41004797  0.20984713    -0.53940
C2581       C  0.53947102  0.38554671  0.21151235     0.77530
O2582       O  0.52110649  0.36688710  0.06790512    -0.58520
O2583       O  0.55682228  0.37033751  0.04624112    -0.51640
C2584       C  0.53194946  0.36251257  0.04705341     0.74120
Zr2585     Zr  0.53413061  0.39807807  0.10685672     2.54710
O2586       O  0.98860264  0.36443092  0.10551995    -0.79080
O2587       O  0.52359259  0.42083570  0.07440285    -0.92500
Zr2588     Zr  0.56673567  0.37059028  0.15376057     2.64680
O2589       O  0.52749718  0.32864660  0.15486064    -0.97450
O2590       O  0.59047724  0.36014929  0.18646065    -0.79520
O2591       O  0.54360917  0.39331878  0.15211668    -0.82870
O2592       O  0.55528670  0.37315105  0.10791471    -2.17580
O2593       O  0.61541097  0.46263320  0.05946851    -0.66260
O2594       O  0.61157519  0.42354648  0.04361870    -0.50830
C2595       C  0.61771076  0.44744986  0.04093098     0.72510
O2596       O  0.64458961  0.46625156  0.19017614    -0.59170
O2597       O  0.60666755  0.46213919  0.20683014    -0.51150
C2598       C  0.63156531  0.47188101  0.20802699     0.74310
O2599       O  0.65951747  0.42387953  0.11815212    -0.70570
O2600       O  0.63771783  0.40011465  0.07800298    -0.49240
C2601       C  0.65837102  0.41215060  0.09429027     0.75690
O2602       O  0.59629569  0.49491595  0.13624912    -0.65900
O2603       O  0.57732728  0.47851149  0.17612750    -0.53090
C2604       C  0.58708237  0.49655811  0.15995656     0.74070
Zr2605     Zr  0.60056711  0.46243553  0.10530323     2.77540
O2606       O  0.64380639  0.50051545  0.10770118    -0.96640
O2607       O  0.58110410  0.48130133  0.07770248    -0.77470
Zr2608     Zr  0.63338221  0.43402507  0.15025069     2.70070
O2609       O  0.67798049  0.46945275  0.15007378    -0.78710
O2610       O  0.64655774  0.41233130  0.18146689    -0.97800
Zr2611     Zr  0.57222022  0.43579636  0.17256863     2.21500
Zr2612     Zr  0.59372861  0.39483003  0.08216016     2.11130
O2613       O  0.62209892  0.43765492  0.10469684    -2.46480
O2614       O  0.61198096  0.45865492  0.15006417    -0.78510
O2615       O  0.57244284  0.42028682  0.08249246    -0.70700
O2616       O  0.59518126  0.41239228  0.17554618    -2.31660
O2617       O  0.56118382  0.44037707  0.12742521    -2.27870
O2618       O  0.60508325  0.39194388  0.12870213    -0.72460
H2619       H  0.54428412  0.35564052  0.09977807     0.79540
H2620       H  0.59938348  0.41170956  0.19449923     0.80620
H2621       H  0.63779934  0.44628623  0.09469672     0.82850
H2622       H  0.55228094  0.45030182  0.12769995     0.80460
H2623       H  0.58441570  0.36291590  0.20473636     0.43490
H2624       H  0.64505563  0.39708728  0.17000451     0.42460
H2625       H  0.67692552  0.48166127  0.13827785     0.42140
H2626       H  0.65496806  0.49466831  0.09791039     0.40070
H2627       H  0.57336306  0.46895457  0.06101521     0.43210
H2628       H  0.53135327  0.43889451  0.08283472     0.37990
H2629       H  0.98827795  0.35183273  0.11772299     0.44110
H2630       H  0.52116561  0.32279780  0.13537157     0.40520
H2631       H  0.64224629  0.01211286  0.09538758     0.45440
H2632       H  0.50458463  0.41382546  0.07566286     0.44160
H2633       H  0.53365474  0.31681951  0.16016883     0.44300
H2634       H  0.66554345  0.42398730  0.18480411     0.44660
O2635       O  0.64936867  0.11526760  0.32441891    -0.74210
O2636       O  0.68815075  0.11832505  0.31255055    -0.53120
C2637       C  0.66835140  0.12167196  0.30838327     0.79520
O2638       O  0.67251861  0.13038026  0.46184426    -0.58810
O2639       O  0.63688514  0.09145473  0.46853477    -0.51840
C2640       C  0.65231365  0.11593896  0.47479015     0.71530
O2641       O  0.73073898  0.15660221  0.39843695    -0.73370
O2642       O  0.73568920  0.14085506  0.35583492    -0.53940
C2643       C  0.74290742  0.15860577  0.37618832     0.77530
O2644       O  0.59404557  0.07862320  0.38969325    -0.58520
O2645       O  0.59339229  0.06195133  0.43030760    -0.51640
C2646       C  0.58293133  0.06822062  0.41149473     0.74120
Zr2647     Zr  0.63440118  0.09446302  0.36604348     2.54710
O2648       O  0.63213618  0.13404225  0.37554854    -0.79080
O2649       O  0.59757677  0.07561569  0.33264353    -0.92500
Zr2650     Zr  0.69312763  0.12605039  0.42056429     2.64680
O2651       O  0.69344074  0.16715211  0.42214371    -0.97450
O2652       O  0.72765154  0.14216596  0.45641013    -0.79520
O2653       O  0.68007828  0.12043442  0.37322699    -0.82870
O2654       O  0.64743183  0.10200162  0.41295073    -2.17580
O2655       O  0.60743779  0.00083041  0.38578488    -0.66260
O2656       O  0.59321077  0.02207289  0.41476598    -0.50830
C2657       C  0.58920177  0.00302595  0.39724917     0.72510
O2658       O  0.73111835  0.06681781  0.38320186    -0.59170
O2659       O  0.73476251  0.08928229  0.34605865    -0.51150
C2660       C  0.74184703  0.07681318  0.36097292     0.74310
O2661       O  0.67483358  0.03212890  0.45058646    -0.70570
O2662       O  0.63726034  0.03261839  0.46083079    -0.49240
C2663       C  0.65322224  0.02385090  0.46334582     0.75690
O2664       O  0.67383964  0.03348752  0.32828475    -0.65900
O2665       O  0.68901986  0.06855235  0.30580778    -0.53090
C2666       C  0.67793254  0.04379935  0.30567201     0.74070
Zr2667     Zr  0.64058958  0.03108056  0.35880025     2.77540
O2668       O  0.63682073  0.48809193  0.35559104    -0.96640
O2669       O  0.60686739  0.01728886  0.32224210    -0.77470
Zr2670     Zr  0.69774493  0.06288270  0.41521880     2.70070
O2671       O  0.71176336  0.03112031  0.41933824    -0.78710
O2672       O  0.73188426  0.09059409  0.44997595    -0.97800
Zr2673     Zr  0.69836799  0.09718385  0.34884022     2.21500
Zr2674     Zr  0.63376580  0.06097090  0.42964460     2.11130
O2675       O  0.65248578  0.03762416  0.40611570    -2.46480
O2676       O  0.68579821  0.05669779  0.36734493    -0.78510
O2677       O  0.62180806  0.05400262  0.38182120    -0.70700
O2678       O  0.71183380  0.10326031  0.39701256    -2.31660
O2679       O  0.65223502  0.07124934  0.34140668    -2.27870
O2680       O  0.67969129  0.08611016  0.43948452    -0.72460
H2681       H  0.63906473  0.11082496  0.42202277     0.79540
H2682       H  0.73059529  0.11310830  0.39928090     0.80620
H2683       H  0.64637857  0.02062743  0.41191550     0.82850
H2684       H  0.64729366  0.06877912  0.32205276     0.80460
H2685       H  0.74285941  0.14309382  0.44684589     0.43490
H2686       H  0.72683132  0.08095255  0.46654327     0.42460
H2687       H  0.69977058  0.01610905  0.40641582     0.42140
H2688       H  0.65338573  0.49036270  0.34823742     0.40070
H2689       H  0.61572206  0.02696299  0.30639877     0.43210
H2690       H  0.60312188  0.06837917  0.31667269     0.37990
H2691       H  0.65017225  0.14815732  0.37368918     0.44110
H2692       H  0.67508195  0.16270157  0.42453965     0.40520
H2693       H  0.63774427  0.48428735  0.37481136     0.45440
H2694       H  0.59697484  0.09057369  0.32603992     0.44160
H2695       H  0.70258256  0.17662759  0.43993549     0.44300
H2696       H  0.74739910  0.08968161  0.44371118     0.44660
O2697       O  0.53476942  0.17601451  0.20881058    -0.74210
O2698       O  0.54328994  0.14582791  0.22473008    -0.53120
C2699       C  0.53045375  0.15818851  0.22484075     0.79520
O2700       O  0.52887993  0.14777440  0.08059715    -0.58810
O2701       O  0.56654184  0.18039174  0.06610832    -0.51840
C2702       C  0.54207791  0.16336141  0.06299510     0.71530
O2703       O  0.50788552  0.11162327  0.15932766    -0.73370
O2704       O  0.52843728  0.09837160  0.18681064    -0.53940
C2705       C  0.50842623  0.09401259  0.17203961     0.77530
O2706       O  0.57146983  0.23211164  0.14266295    -0.58520
O2707       O  0.59220826  0.23064558  0.10342972    -0.51640
C2708       C  0.58142259  0.24058318  0.11944244     0.74120
Zr2709     Zr  0.56616384  0.19878553  0.17338406     2.54710
O2710       O  0.53158956  0.20977962  0.17678678    -0.79080
O2711       O  0.59036688  0.23430736  0.20886747    -0.92500
Zr2712     Zr  0.53575402  0.13418712  0.12306774     2.64680
O2713       O  0.99087236  0.12486505  0.11626309    -0.97450
O2714       O  0.52421619  0.09445228  0.09369615    -0.79520
O2715       O  0.54397716  0.15301920  0.16892272    -0.82870
O2716       O  0.55719048  0.18004431  0.12674392    -2.17580
O2717       O  0.65981447  0.23590586  0.14680679    -0.66260
O2718       O  0.64097958  0.23030580  0.10392208    -0.50830
C2719       C  0.65961386  0.24276901  0.12230490     0.72510
O2720       O  0.59845681  0.10211199  0.15289415    -0.59170
O2721       O  0.57482580  0.10025065  0.19060512    -0.51150
C2722       C  0.58691138  0.09180244  0.17446610     0.74310
O2723       O  0.62174726  0.14723470  0.08201052    -0.70570
O2724       O  0.61746957  0.18023690  0.06707430    -0.49240
C2725       C  0.62459582  0.16289263  0.06428903     0.75690
O2726       O  0.64179013  0.17712549  0.21109155    -0.65900
O2727       O  0.60305526  0.14610733  0.22587872    -0.53090
C2728       C  0.62820702  0.15876963  0.22655786     0.74070
Zr2729     Zr  0.63330765  0.20004260  0.17553445     2.77540
O2730       O  0.67874979  0.21062685  0.17865046    -0.96640
O2731       O  0.64332389  0.23427680  0.21234569    -0.77470
Zr2732     Zr  0.60308215  0.13566572  0.12539950     2.70070
O2733       O  0.64540941  0.13812019  0.12817870    -0.78710
O2734       O  0.58330134  0.09549757  0.09510178    -0.97800
Zr2735     Zr  0.57009377  0.13885595  0.19094278     2.21500
Zr2736     Zr  0.59795077  0.19320427  0.10554971     2.11130
O2737       O  0.62575806  0.18148301  0.12889701    -2.46480
O2738       O  0.61132102  0.15423883  0.17113714    -0.78510
O2739       O  0.60662682  0.21272804  0.15232939    -0.70700
O2740       O  0.56187033  0.12015762  0.14437341    -2.31660
O2741       O  0.59255228  0.18558828  0.19695194    -2.27870
O2742       O  0.57589382  0.14729187  0.10182423    -0.72460
H2743       H  0.54678930  0.18575143  0.11742322     0.79540
H2744       H  0.55308533  0.10150493  0.14330125     0.80620
H2745       H  0.64219493  0.18761939  0.12013118     0.82850
H2746       H  0.59507860  0.19167621  0.21631681     0.80460
H2747       H  0.52502000  0.08228029  0.10571549     0.43490
H2748       H  0.57624398  0.09935284  0.07884997     0.42460
H2749       H  0.65517304  0.15177940  0.14337144     0.42140
H2750       H  0.68340297  0.20888399  0.15935763     0.40070
H2751       H  0.64700076  0.24957141  0.20264110     0.43210
H2752       H  0.57834827  0.23060580  0.22417828     0.37990
H2753       H  0.51834536  0.19781441  0.16238577     0.44110
H2754       H  0.99208555  0.14193639  0.11523063     0.40520
H2755       H  0.68866832  0.22943682  0.18444526     0.45440
H2756       H  0.59112004  0.24956768  0.20136607     0.44160
H2757       H  0.98498651  0.11589035  0.09746723     0.44300
H2758       H  0.59820282  0.09374874  0.08822214     0.44660
O2759       O  0.82405175  0.46695897  0.18904147    -0.74210
O2760       O  0.85979158  0.46512730  0.20378715    -0.53120
C2761       C  0.84351233  0.47358037  0.20604428     0.79520
O2762       O  0.76507852  0.34110922  0.12827331    -0.58810
O2763       O  0.76181234  0.35162042  0.08486455    -0.51840
C2764       C  0.75298476  0.33695743  0.10493933     0.71530
O2765       O  0.82568677  0.37231577  0.19659227    -0.73370
O2766       O  0.85984591  0.41276912  0.20781510    -0.53940
C2767       C  0.84531611  0.38899416  0.21236486     0.77530
O2768       O  0.76778526  0.42700697  0.11567927    -0.58520
O2769       O  0.76385897  0.40058406  0.07694803    -0.51640
C2770       C  0.75612325  0.41384031  0.09275240     0.74120
Zr2771     Zr  0.80494912  0.43796160  0.14642431     2.54710
O2772       O  0.76865911  0.42166563  0.17692796    -0.79080
O2773       O  0.80345947  0.47733754  0.14034164    -0.92500
Zr2774     Zr  0.80487205  0.37261613  0.15333203     2.64680
O2775       O  0.77165009  0.36392857  0.18692279    -0.97450
O2776       O  0.80116920  0.33011379  0.15325599    -0.79520
O2777       O  0.81998427  0.41570890  0.17276780    -0.82870
O2778       O  0.78900417  0.39458957  0.12767714    -2.17580
O2779       O  0.84821599  0.45979831  0.05444912    -0.66260
O2780       O  0.81240276  0.42080080  0.04032849    -0.50830
C2781       C  0.83030686  0.44437890  0.03662594     0.72510
O2782       O  0.90410114  0.41142867  0.13224065    -0.59170
O2783       O  0.90519651  0.43400680  0.17294575    -0.51150
C2784       C  0.91519377  0.42450903  0.15533320     0.74310
O2785       O  0.84414154  0.36300286  0.06587439    -0.70570
O2786       O  0.80906555  0.36375922  0.04756737    -0.49240
C2787       C  0.82559232  0.35523153  0.04764592     0.75690
O2788       O  0.90315727  0.49057507  0.12723452    -0.65900
O2789       O  0.90473598  0.47913918  0.17011799    -0.53090
C2790       C  0.91418486  0.49471977  0.15131677     0.74070
Zr2791     Zr  0.86450986  0.45970705  0.09909356     2.77540
O2792       O  0.90101582  0.47249418  0.06899608    -0.96640
O2793       O  0.86487129  0.50066795  0.09858787    -0.77470
Zr2794     Zr  0.86387293  0.39460666  0.10486533     2.70070
O2795       O  0.89634372  0.40850420  0.06989803    -0.78710
O2796       O  0.86994807  0.35830040  0.11379137    -0.97800
Zr2797     Zr  0.86600953  0.43723530  0.16891270     2.21500
Zr2798     Zr  0.80174748  0.39394424  0.08066876     2.11130
O2799       O  0.84832963  0.41646351  0.07896077    -2.46480
O2800       O  0.88068677  0.43789630  0.12336848    -0.78510
O2801       O  0.81844904  0.43783772  0.10045765    -0.70700
O2802       O  0.85059869  0.39357803  0.15047204    -2.31660
O2803       O  0.85075452  0.46035840  0.14427282    -2.27870
O2804       O  0.81791768  0.37223820  0.10714951    -0.72460
H2805       H  0.77026485  0.38599145  0.12830951     0.79540
H2806       H  0.85817980  0.38533332  0.16035378     0.80620
H2807       H  0.85349450  0.41632920  0.06015032     0.82850
H2808       H  0.85808394  0.47811993  0.15201840     0.80460
H2809       H  0.81779308  0.33242060  0.14603803     0.43490
H2810       H  0.85250105  0.34281294  0.11031699     0.42460
H2811       H  0.90792036  0.42722376  0.07520303     0.42140
H2812       H  0.89427614  0.45937040  0.05284160     0.40070
H2813       H  0.84623821  0.49580043  0.09756271     0.43210
H2814       H  0.82143828  0.49160433  0.14497126     0.37990
H2815       H  0.77568026  0.41873235  0.19385692     0.44110
H2816       H  0.75847692  0.36669235  0.17757625     0.40520
H2817       H  0.90334695  0.48852001  0.06184287     0.45440
H2818       H  0.79311689  0.47888102  0.15566249     0.44160
H2819       H  0.76299033  0.34498284  0.18793549     0.44300
H2820       H  0.88032012  0.35687965  0.09843319     0.44660
C2821       C  0.97190834  0.06011403  0.14191262     0.24670
C2822       C  0.98518011  0.06790590  0.16786004    -0.23430
C2823       C  0.97585731  0.05066004  0.18838097     0.19580
C2824       C  0.95280157  0.02667565  0.18330430     0.24620
C2825       C  0.93921558  0.01933578  0.15728934    -0.23380
C2826       C  0.94968343  0.03627973  0.13654859     0.19520
F2827       F  0.93849478  0.03015691  0.11067983    -0.13340
F2828       F  0.98055155  0.07552078  0.12107974    -0.15700
F2829       F  0.94377243  0.01091097  0.20392454    -0.15700
F2830       F  0.98850615  0.05721865  0.21346901    -0.13340
C2831       C  0.69844107  0.26741014  0.09369296     0.24670
C2832       C  0.68213690  0.26723712  0.11495771    -0.23430
C2833       C  0.68728727  0.29083081  0.12917910     0.19580
C2834       C  0.70903011  0.31402307  0.12330719     0.24620
C2835       C  0.72639777  0.31417792  0.10333843    -0.23380
C2836       C  0.72065062  0.29070571  0.08816095     0.19520
F2837       F  0.73746874  0.29005369  0.06950617    -0.13340
F2838       F  0.69371960  0.24483331  0.07946730    -0.15700
F2839       F  0.71412952  0.33635544  0.13841903    -0.15700
F2840       F  0.67145470  0.29134864  0.14918131    -0.13340
C2841       C  0.63095942  0.12328011  0.24787195     0.24670
C2842       C  0.64193838  0.14995190  0.24512990    -0.23430
C2843       C  0.66548698  0.16716804  0.26021449     0.19580
C2844       C  0.67632794  0.15797493  0.27929009     0.24620
C2845       C  0.66440304  0.13134560  0.28269631    -0.23380
C2846       C  0.64220456  0.11417780  0.26595565     0.19520
F2847       F  0.62996154  0.08841108  0.26890335    -0.13340
F2848       F  0.60865138  0.10574134  0.23360524    -0.15700
F2849       F  0.69728281  0.17518686  0.29575320    -0.15700
F2850       F  0.67696087  0.19298256  0.25798181    -0.13340
C2851       C  0.66247931  0.14021201  0.02104534     0.24670
C2852       C  0.64603142  0.12949731  0.49730737    -0.23430
C2853       C  0.62590462  0.13522126  0.49340715     0.19580
C2854       C  0.62096553  0.14980399  0.01414449     0.24620
C2855       C  0.63597352  0.15856018  0.03899548    -0.23380
C2856       C  0.65742903  0.15453137  0.04181458     0.19520
F2857       F  0.67224356  0.16279070  0.06571054    -0.13340
F2858       F  0.68279763  0.13592019  0.02453480    -0.15700
F2859       F  0.60036778  0.15363012  0.01084856    -0.15700
F2860       F  0.61099991  0.12655074  0.46958232    -0.13340
C2861       C  0.65418999  0.47749518  0.01314252     0.24670
C2862       C  0.62739858  0.45987285  0.01495889    -0.23430
C2863       C  0.60967233  0.46240319  0.99805579     0.19580
C2864       C  0.61819790  0.48277454  0.48112277     0.24620
C2865       C  0.64488029  0.00135829  0.48040877    -0.23380
C2866       C  0.66287623  0.49773116  0.49574854     0.19520
F2867       F  0.68875505  0.01483189  0.49548467    -0.13340
F2868       F  0.67183039  0.47644572  0.03003308    -0.15700
F2869       F  0.60006799  0.48461804  0.46585799    -0.15700
F2870       F  0.58367731  0.44647749  0.99994454    -0.13340
C2871       C  0.63445997  0.48413872  0.25791577     0.24670
C2872       C  0.64554056  0.49024710  0.23236962    -0.23430
C2873       C  0.66833761  0.01426442  0.23060891     0.19580
C2874       C  0.67926540  0.03217342  0.25422903     0.24620
C2875       C  0.66780940  0.02591319  0.27986989    -0.23380
C2876       C  0.64542345  0.00149399  0.28114857     0.19520
F2877       F  0.63313529  0.99434480  0.30485249    -0.13340
F2878       F  0.61264035  0.46109334  0.26050189    -0.15700
F2879       F  0.70099379  0.05531268  0.25208747    -0.15700
F2880       F  0.67939504  0.52071617  0.20598826    -0.13340
C2881       C  0.56373700  0.04434599  0.17875425     0.24670
C2882       C  0.58722192  0.06792321  0.17928208    -0.23430
C2883       C  0.61084786  0.06764498  0.17691046     0.19580
C2884       C  0.61086150  0.04426857  0.17161506     0.24620
C2885       C  0.58729432  0.02081852  0.16902476    -0.23380
C2886       C  0.56379553  0.02085922  0.17378733     0.19520
F2887       F  0.54076963  0.49829024  0.17133065    -0.13340
F2888       F  0.54064189  0.04409892  0.18018892    -0.15700
F2889       F  0.63380877  0.04453751  0.16806763    -0.15700
F2890       F  0.63381893  0.09021439  0.17783197    -0.13340
C2891       C  0.55646803  0.28687008  0.10678554     0.24670
C2892       C  0.57888032  0.30866959  0.09854047    -0.23430
C2893       C  0.60148105  0.30675147  0.09442421     0.19580
C2894       C  0.60207115  0.28419443  0.10003283     0.24620
C2895       C  0.58021213  0.26334017  0.11048659    -0.23380
C2896       C  0.55720662  0.26469344  0.11297289     0.19520
F2897       F  0.53545502  0.24465863  0.12196441    -0.13340
F2898       F  0.53409741  0.28771240  0.11055468    -0.15700
F2899       F  0.62464141  0.28356048  0.09724811    -0.15700
F2900       F  0.62364517  0.32748107  0.08740501    -0.13340
C2901       C  0.70676899  0.43655100  0.09313413     0.24670
C2902       C  0.68330034  0.41340780  0.08607681    -0.23430
C2903       C  0.68462707  0.39130824  0.07569742     0.19580
C2904       C  0.70872964  0.39165193  0.07553600     0.24620
C2905       C  0.73183267  0.41426070  0.08536940    -0.23380
C2906       C  0.73062748  0.43699939  0.09269805     0.19520
F2907       F  0.75256988  0.45955434  0.10105222    -0.13340
F2908       F  0.70650721  0.45865536  0.10194460    -0.15700
F2909       F  0.70910581  0.36938530  0.06807793    -0.15700
F2910       F  0.66250077  0.36890758  0.06779164    -0.13340
C2911       C  0.97395764  0.42404243  0.18558625     0.24670
C2912       C  0.98936755  0.42986585  0.16242830    -0.23430
C2913       C  0.98211329  0.43799722  0.13945578     0.19580
C2914       C  0.95863359  0.43782631  0.13832495     0.24620
C2915       C  0.94193578  0.42979367  0.16027796    -0.23380
C2916       C  0.95017070  0.42410291  0.18454521     0.19520
F2917       F  0.93436419  0.41658804  0.20610842    -0.13340
F2918       F  0.98083330  0.41637395  0.20804471    -0.15700
F2919       F  0.95147089  0.44410800  0.11494538    -0.15700
F2920       F  0.99709002  0.44445848  0.11712003    -0.13340
C2921       C  0.52879337  0.14377847  0.01509523     0.24670
C2922       C  0.52690917  0.15920446  0.03736895    -0.23430
C2923       C  0.00449729  0.16184378  0.03885335     0.19580
C2924       C  0.98384539  0.14828228  0.01913187     0.24620
C2925       C  0.98502439  0.13134335  0.49803826    -0.23380
C2926       C  0.50810949  0.13011807  0.49552084     0.19520
F2927       F  0.51065632  0.11576487  0.47391142    -0.13340
F2928       F  0.54965579  0.14004857  0.01369456    -0.15700
F2929       F  0.96221129  0.15070594  0.02140086    -0.15700
F2930       F  0.00184415  0.17601564  0.06065841    -0.13340
C2931       C  0.98192033  0.15878375  0.27735456     0.24670
C2932       C  0.96877729  0.13268754  0.28304423    -0.23430
C2933       C  0.97437870  0.11513685  0.26764908     0.19580
C2934       C  0.49387611  0.12355915  0.24856245     0.24620
C2935       C  0.50828264  0.14986007  0.24379775    -0.23380
C2936       C  0.00125647  0.16725324  0.25750156     0.19520
F2937       F  0.01424232  0.19267383  0.25310098    -0.13340
F2938       F  0.97735971  0.17631118  0.29228725    -0.15700
F2939       F  0.49913336  0.10584457  0.23523782    -0.15700
F2940       F  0.96228294  0.08986935  0.27281775    -0.13340
C2941       C  0.86664020  0.48037601  0.97813619     0.24670
C2942       C  0.85816121  0.99865477  0.47706778    -0.23430
C2943       C  0.83565229  0.49427589  0.49122027     0.19580
C2944       C  0.82353811  0.47359908  0.00796796     0.24620
C2945       C  0.83301878  0.45623397  0.01028185    -0.23380
C2946       C  0.85415242  0.45944738  0.99430068     0.19520
F2947       F  0.86448290  0.44373249  0.99663344    -0.13340
F2948       F  0.88752449  0.98305708  0.96397216    -0.15700
F2949       F  0.80405739  0.47200045  0.02399918    -0.15700
F2950       F  0.82648728  0.01111159  0.49050720    -0.13340
C2951       C  0.84327319  0.49926649  0.27930875     0.24670
C2952       C  0.85912825  0.02642313  0.27872513    -0.23430
C2953       C  0.86776848  0.03601375  0.25299332     0.19580
C2954       C  0.86183442  0.01885615  0.22896472     0.24620
C2955       C  0.84735316  0.49192181  0.23027616    -0.23380
C2956       C  0.83786347  0.48235910  0.25548655     0.19520
F2957       F  0.82395703  0.45641505  0.25721927    -0.13340
F2958       F  0.83358667  0.48868929  0.30316920    -0.15700
F2959       F  0.87114753  0.02847498  0.20460626    -0.15700
F2960       F  0.88295852  0.06181198  0.25120253    -0.13340
C2961       C  0.54045518  0.05614067  0.38956792     0.24670
C2962       C  0.55609070  0.06311057  0.41388636    -0.23430
C2963       C  0.54680573  0.06797050  0.43899501     0.19580
C2964       C  0.52338360  0.06859657  0.43911519     0.24620
C2965       C  0.50973046  0.06510229  0.41405175    -0.23380
C2966       C  0.51771324  0.05747187  0.38958016     0.19520
F2967       F  0.50378936  0.05196087  0.36537811    -0.13340
F2968       F  0.54788238  0.04922379  0.36536589    -0.15700
F2969       F  0.51506043  0.07421012  0.46332141    -0.15700
F2970       F  0.56120799  0.07396495  0.46290812    -0.13340
C2971       C  0.78687899  0.09490624  0.34364353     0.24670
C2972       C  0.76446813  0.07405663  0.35299095    -0.23430
C2973       C  0.76511816  0.05164480  0.35853205     0.19580
C2974       C  0.78846861  0.05125172  0.35797318     0.24620
C2975       C  0.81163624  0.07335493  0.35210225    -0.23380
C2976       C  0.81045217  0.09465176  0.34337394     0.19520
F2977       F  0.83244161  0.11616624  0.33723299    -0.13340
F2978       F  0.78658648  0.11644972  0.33725143    -0.15700
F2979       F  0.78870571  0.02975361  0.36480847    -0.15700
F2980       F  0.74337117  0.03056127  0.36595164    -0.13340
C2981       C  0.97389908  0.34706381  0.50173897     0.24670
C2982       C  0.96824505  0.32422931  0.48553671    -0.23430
C2983       C  0.98498193  0.31381537  0.48872532     0.19580
C2984       C  0.50661212  0.32603676  0.00810818     0.24620
C2985       C  0.51297148  0.34997040  0.02279706    -0.23380
C2986       C  0.49646249  0.36034312  0.01858590     0.19520
F2987       F  0.50234284  0.38393813  0.03097666    -0.13340
F2988       F  0.95900486  0.35833619  0.49872011    -0.15700
F2989       F  0.52112029  0.31461815  0.01238190    -0.15700
F2990       F  0.98076280  0.29230342  0.47258559    -0.13340
C2991       C  0.99470572  0.36581490  0.22821374     0.24670
C2992       C  0.52138691  0.37526418  0.23367364    -0.23430
C2993       C  0.53052740  0.37609988  0.26047798     0.19580
C2994       C  0.51306875  0.36754331  0.28171025     0.24620
C2995       C  0.98644777  0.35858987  0.27635216    -0.23380
C2996       C  0.97734819  0.35774636  0.24950742     0.19520
F2997       F  0.95168453  0.34915331  0.24399935    -0.13340
F2998       F  0.98562708  0.36503423  0.20236085    -0.15700
F2999       F  0.52222240  0.36891578  0.30769085    -0.15700
F3000       F  0.55632695  0.38554835  0.26608617    -0.13340
C3001       C  0.89707799  0.43797028  0.38174479     0.24670
C3002       C  0.91982297  0.43766226  0.37400800    -0.23430
C3003       C  0.94418317  0.46012425  0.37841818     0.19580
C3004       C  0.94568012  0.48275924  0.39082057     0.24620
C3005       C  0.92291495  0.48266167  0.39917929    -0.23380
C3006       C  0.89871647  0.46009825  0.39502751     0.19520
F3007       F  0.87644743  0.46025267  0.40184327    -0.13340
F3008       F  0.87336067  0.41627245  0.37761121    -0.15700
F3009       F  0.96896513  0.00496605  0.39349448    -0.15700
F3010       F  0.96637399  0.45979818  0.37179511    -0.13340
C3011       C  0.90553137  0.21227243  0.35592831     0.24670
C3012       C  0.90550534  0.22532478  0.38152977    -0.23430
C3013       C  0.90371037  0.21363061  0.40579742     0.19580
C3014       C  0.90381973  0.19033546  0.40473207     0.24620
C3015       C  0.90609798  0.17837813  0.37937961    -0.23380
C3016       C  0.90595431  0.18905404  0.35489971     0.19520
F3017       F  0.90748689  0.17778014  0.33008121    -0.13340
F3018       F  0.90571566  0.22220532  0.33180524    -0.15700
F3019       F  0.90222159  0.17980521  0.42879572    -0.15700
F3020       F  0.90318437  0.22527499  0.43080506    -0.13340
C3021       C  0.53369254  0.44612732  0.35671099     0.24670
C3022       C  0.51361532  0.44058668  0.37458489    -0.23430
C3023       C  0.51723565  0.45720231  0.39838515     0.19580
C3024       C  0.54169293  0.47836036  0.40551752     0.24620
C3025       C  0.56267658  0.48261421  0.38901036    -0.23380
C3026       C  0.55817939  0.46698011  0.36384683     0.19520
F3027       F  0.57762625  0.47103434  0.34656162    -0.13340
F3028       F  0.53024847  0.42988250  0.33382036    -0.15700
F3029       F  0.54511468  0.49345397  0.42935176    -0.15700
F3030       F  0.49748125  0.45172072  0.41569048    -0.13340
C3031       C  0.81405072  0.20612205  0.36948227     0.24670
C3032       C  0.81582174  0.22838283  0.38379583    -0.23430
C3033       C  0.79342933  0.22827340  0.39327418     0.19580
C3034       C  0.76938826  0.20584478  0.38916759     0.24620
C3035       C  0.76743241  0.18309324  0.37553842    -0.23380
C3036       C  0.78991276  0.18347894  0.36542220     0.19520
F3037       F  0.78866917  0.16182236  0.35253057    -0.13340
F3038       F  0.83563035  0.20648177  0.35925429    -0.15700
F3039       F  0.74794477  0.20636384  0.39853128    -0.15700
F3040       F  0.79483949  0.25015163  0.40594963    -0.13340
C3041       C  0.82557471  0.32539672  0.47565036     0.24670
C3042       C  0.84333779  0.31629933  0.47992819    -0.23430
C3043       C  0.84843922  0.31334078  0.00701163     0.19580
C3044       C  0.83928186  0.32285201  0.02925571     0.24620
C3045       C  0.82561496  0.33645260  0.02492454    -0.23380
C3046       C  0.81720073  0.33577282  0.49781954     0.19520
F3047       F  0.80325621  0.34755615  0.49242733    -0.13340
F3048       F  0.81871649  0.32702412  0.44962326    -0.15700
F3049       F  0.84582456  0.32070396  0.05520225    -0.15700
F3050       F  0.86471557  0.30405137  0.01214836    -0.13340
C3051       C  0.83707682  0.35554470  0.24549188     0.24670
C3052       C  0.85325949  0.38007965  0.23625173    -0.23430
C3053       C  0.87855519  0.39538777  0.24848196     0.19580
C3054       C  0.88761095  0.38635846  0.26875816     0.24620
C3055       C  0.87169991  0.36167285  0.27781701    -0.23380
C3056       C  0.84615705  0.34647535  0.26609999     0.19520
F3057       F  0.82997421  0.32264788  0.27418258    -0.13340
F3058       F  0.81248514  0.34015020  0.23452753    -0.15700
F3059       F  0.91228352  0.40218117  0.27936558    -0.15700
F3060       F  0.89526553  0.41906499  0.24034913    -0.13340
O3061       O  0.86609893  0.33203638  0.81098303    -0.74210
O3062       O  0.90618316  0.36661813  0.80675612    -0.53120
C3063       C  0.88188673  0.35264647  0.79977229     0.79520
O3064       O  0.86859725  0.33868196  0.94510261    -0.58810
O3065       O  0.87020893  0.30227477  0.95232297    -0.51840
C3066       C  0.86171146  0.31857464  0.95770246     0.71530
O3067       O  0.90652502  0.39915666  0.89088947    -0.73370
O3068       O  0.92975288  0.40678317  0.85200875    -0.53940
C3069       C  0.91845664  0.41282589  0.87140987     0.77530
O3070       O  0.84156275  0.26558786  0.86321992    -0.58520
O3071       O  0.85607365  0.26068456  0.90475429    -0.51640
C3072       C  0.83964519  0.25303945  0.88401259     0.74120
Zr3073     Zr  0.86954954  0.30695308  0.84644116     2.54710
O3074       O  0.82674384  0.30330694  0.84981126    -0.79080
O3075       O  0.85627238  0.27604758  0.80559598    -0.92500
Zr3076     Zr  0.89617205  0.35992590  0.90926377     2.64680
O3077       O  0.85766675  0.36471049  0.90551469    -0.97450
O3078       O  0.91362064  0.39126111  0.94975258    -0.79520
O3079       O  0.89119921  0.35151727  0.86083824    -0.82870
O3080       O  0.87314769  0.31539056  0.89528153    -2.17580
O3081       O  0.92017709  0.26445215  0.86228210    -0.66260
O3082       O  0.90162236  0.26018250  0.90410472    -0.50830
C3083       C  0.90913966  0.25164547  0.88281469     0.72510
O3084       O  0.99079672  0.40157173  0.89251926    -0.59170
O3085       O  0.97523214  0.40708105  0.85223849    -0.51150
C3086       C  0.99175583  0.41473478  0.87267528     0.74310
O3087       O  0.96922250  0.33731637  0.94290090    -0.70570
O3088       O  0.92919638  0.30612446  0.95473895    -0.49240
C3089       C  0.95430822  0.32089265  0.95895872     0.75690
O3090       O  0.96402730  0.33132500  0.81090170    -0.65900
O3091       O  0.95879992  0.36622589  0.80560313    -0.53090
C3092       C  0.96850215  0.35149355  0.79899246     0.74070
Zr3093     Zr  0.93580053  0.30663915  0.84658802     2.77540
O3094       O  0.97434009  0.30181753  0.84961122    -0.96640
O3095       O  0.91858355  0.27668314  0.80506024    -0.77470
Zr3096     Zr  0.96284642  0.36009951  0.90866895     2.70070
O3097       O  0.00598880  0.36459856  0.90521826    -0.78710
O3098       O  0.97665585  0.39189901  0.94876780    -0.97800
Zr3099     Zr  0.93373134  0.36843383  0.84396939     2.21500
Zr3100     Zr  0.89841078  0.29891555  0.91506171     2.11130
O3101       O  0.94029196  0.31512491  0.89534378    -2.46480
O3102       O  0.95945638  0.35141376  0.86033214    -0.78510
O3103       O  0.89441102  0.29046562  0.86561569    -0.70700
O3104       O  0.93824866  0.37784491  0.89262492    -2.31660
O3105       O  0.91125255  0.32373015  0.82784063    -2.27870
O3106       O  0.92154522  0.34401039  0.92879801    -0.72460
H3107       H  0.85575058  0.30752147  0.90199401     0.79540
H3108       H  0.94710357  0.39619927  0.89816543     0.80620
H3109       H  0.94931838  0.30676108  0.90210471     0.82850
H3110       H  0.91007268  0.32116842  0.80793927     0.80460
H3111       H  0.92989846  0.40580693  0.94380987     0.43490
H3112       H  0.96100582  0.38625730  0.95980989     0.42460
H3113       H  0.50397631  0.35166326  0.88987165     0.42140
H3114       H  0.97395390  0.29553014  0.86785710     0.40070
H3115       H  0.89977798  0.26584436  0.80805271     0.43210
H3116       H  0.86521408  0.28654549  0.79027938     0.37990
H3117       H  0.83040227  0.32128285  0.85464849     0.44110
H3118       H  0.84280963  0.34679906  0.90340117     0.40520
H3119       H  0.97047566  0.28680579  0.83619710     0.45440
H3120       H  0.83766186  0.27056275  0.80212340     0.44160
H3121       H  0.85619705  0.37193241  0.92406711     0.44300
H3122       H  0.98876741  0.38878810  0.95971794     0.44660
O3123       O  0.91979678  0.15392937  0.90180594    -0.74210
O3124       O  0.90311154  0.13949475  0.85761679    -0.53120
C3125       C  0.90993668  0.15579011  0.87928892     0.79520
O3126       O  0.98852785  0.08277022  0.89096337    -0.58810
O3127       O  0.97157498  0.06434676  0.93056661    -0.51840
C3128       C  0.98863478  0.07124844  0.91209988     0.71530
O3129       O  0.96928001  0.11970864  0.82625282    -0.73370
O3130       O  0.93231757  0.11998047  0.81306392    -0.53940
C3131       C  0.95587709  0.12440642  0.80936293     0.77530
O3132       O  0.95688659  0.13134959  0.96422224    -0.58520
O3133       O  0.95557452  0.09304004  0.96979413    -0.51640
C3134       C  0.96387289  0.11739668  0.97656750     0.74120
Zr3135     Zr  0.93066741  0.12538845  0.92316207     2.54710
O3136       O  0.96747007  0.16927489  0.92875489    -0.79080
O3137       O  0.90761300  0.13521260  0.95947253    -0.92500
Zr3138     Zr  0.96502963  0.10096206  0.86918555     2.64680
O3139       O  0.00254633  0.14290716  0.88402904    -0.97450
O3140       O  0.99241613  0.09237684  0.83755886    -0.79520
O3141       O  0.94120459  0.12318721  0.87606479    -0.82870
O3142       O  0.95598736  0.10488232  0.91566425    -2.17580
O3143       O  0.85845063  0.02803089  0.94624931    -0.66260
O3144       O  0.89741843  0.03225532  0.95982807    -0.50830
C3145       C  0.87229444  0.02138804  0.96038884     0.72510
O3146       O  0.86530871  0.03203467  0.82724189    -0.59170
O3147       O  0.88251613  0.06831420  0.80634576    -0.51150
C3148       C  0.86925027  0.04340513  0.80532185     0.74310
O3149       O  0.91254650  0.00857709  0.87781983    -0.70570
O3150       O  0.92947845  0.02201053  0.92204748    -0.49240
C3151       C  0.92206261  0.00624773  0.90015625     0.75690
O3152       O  0.83721842  0.06473794  0.88130207    -0.65900
O3153       O  0.85653968  0.08843636  0.84510646    -0.53090
C3154       C  0.83680171  0.07549800  0.85961313     0.74070
Zr3155     Zr  0.86605572  0.05893347  0.91192294     2.77540
O3156       O  0.82153710  0.02283584  0.90736247    -0.96640
O3157       O  0.85299955  0.08082112  0.94764088    -0.77470
Zr3158     Zr  0.89973244  0.03504044  0.85630114     2.70070
O3159       O  0.86797563  0.48919497  0.84773537    -0.78710
O3160       O  0.91838607  0.02672252  0.81466749    -0.97800
Zr3161     Zr  0.90128130  0.09782485  0.84906313     2.21500
Zr3162     Zr  0.92990890  0.06254247  0.93002515     2.11130
O3163       O  0.88999869  0.03715770  0.90309889    -2.46480
O3164       O  0.87526183  0.05589671  0.86471242    -0.78510
O3165       O  0.90525796  0.08390808  0.93948564    -0.70700
O3166       O  0.92606593  0.07630330  0.84143850    -2.31660
O3167       O  0.89098130  0.10074943  0.89677576    -2.27870
O3168       O  0.93923468  0.05898757  0.88261469    -0.72460
H3169       H  0.97276498  0.11423069  0.92539681     0.79540
H3170       H  0.92945078  0.07457362  0.82220554     0.80620
H3171       H  0.88060746  0.01951603  0.90774665     0.82850
H3172       H  0.88055448  0.10911302  0.89898682     0.80460
H3173       H  0.98034574  0.07542415  0.82741791     0.43490
H3174       H  0.92896339  0.01928817  0.82105033     0.42460
H3175       H  0.85465316  0.98626110  0.86148971     0.42140
H3176       H  0.82324272  0.00709072  0.90472924     0.40070
H3177       H  0.85606808  0.07512725  0.96507676     0.43210
H3178       H  0.89225664  0.13406200  0.94989187     0.37990
H3179       H  0.98228685  0.16761483  0.92143951     0.44110
H3180       H  0.01369563  0.13885370  0.89540932     0.40520
H3181       H  0.81442397  0.02239706  0.92585429     0.45440
H3182       H  0.91895176  0.15391202  0.96511620     0.44160
H3183       H  0.51220636  0.14872661  0.86707290     0.44300
H3184       H  0.90342694  0.01204506  0.80397309     0.44660
O3185       O  0.50818284  0.40975819  0.63651376    -0.74210
O3186       O  0.53050448  0.43462879  0.67579670    -0.53120
C3187       C  0.51052558  0.42389826  0.65885229     0.79520
O3188       O  0.57235708  0.33841616  0.62608352    -0.58810
O3189       O  0.58838529  0.35064507  0.58381129    -0.51660
C3190       C  0.58005019  0.33434492  0.60251921     0.71530
O3191       O  0.54184924  0.36922755  0.69440758    -0.73370
O3192       O  0.55053941  0.41004797  0.70984715    -0.53940
C3193       C  0.53947103  0.38554671  0.71151236     0.77530
O3194       O  0.52110652  0.36688730  0.56790501    -0.58520
O3195       O  0.55682227  0.37033747  0.54624111    -0.51640
C3196       C  0.53194947  0.36251265  0.54705336     0.74120
Zr3197     Zr  0.53413058  0.39807807  0.60685677     2.54710
O3198       O  0.98860285  0.36443035  0.60552088    -0.79080
O3199       O  0.52359228  0.42083552  0.57440293    -0.92500
Zr3200     Zr  0.56673567  0.37059027  0.65376056     2.64680
O3201       O  0.52749717  0.32864659  0.65486064    -0.97450
O3202       O  0.59047724  0.36014929  0.68646064    -0.79520
O3203       O  0.54360917  0.39331879  0.65211671    -0.82870
O3204       O  0.55528669  0.37315105  0.60791471    -2.17580
O3205       O  0.61541097  0.46263319  0.55946852    -0.66260
O3206       O  0.61157517  0.42354647  0.54361870    -0.50830
C3207       C  0.61771075  0.44744986  0.54093098     0.72510
O3208       O  0.64458962  0.46625156  0.69017614    -0.59170
O3209       O  0.60666757  0.46213920  0.70683015    -0.51150
C3210       C  0.63156532  0.47188101  0.70802699     0.74310
O3211       O  0.65951747  0.42387952  0.61815211    -0.70570
O3212       O  0.63771781  0.40011464  0.57800297    -0.49240
C3213       C  0.65837101  0.41215059  0.59429026     0.75690
O3214       O  0.59629569  0.49491595  0.63624912    -0.65900
O3215       O  0.57732728  0.47851150  0.67612750    -0.53090
C3216       C  0.58708237  0.49655810  0.65995655     0.74070
Zr3217     Zr  0.60056711  0.46243552  0.60530323     2.77540
O3218       O  0.64380638  0.50051545  0.60770116    -0.96640
O3219       O  0.58110404  0.48130126  0.57770247    -0.77470
Zr3220     Zr  0.63338221  0.43402507  0.65025068     2.70070
O3221       O  0.67798049  0.46945274  0.65007376    -0.78710
O3222       O  0.64655775  0.41233130  0.68146688    -0.97800
Zr3223     Zr  0.57222023  0.43579637  0.67256865     2.21500
Zr3224     Zr  0.59372859  0.39483002  0.58216016     2.11130
O3225       O  0.62209891  0.43765491  0.60469683    -2.46480
O3226       O  0.61198096  0.45865492  0.65006417    -0.78510
O3227       O  0.57244281  0.42028680  0.58249249    -0.70700
O3228       O  0.59518126  0.41239227  0.67554618    -2.31660
O3229       O  0.56118383  0.44037708  0.62742523    -2.27870
O3230       O  0.60508324  0.39194387  0.62870213    -0.72460
H3231       H  0.54428408  0.35564053  0.59977805     0.79540
H3232       H  0.59938349  0.41170956  0.69449923     0.80620
H3233       H  0.63779933  0.44628622  0.59469671     0.82850
H3234       H  0.55228096  0.45030183  0.62769995     0.80460
H3235       H  0.58441570  0.36291589  0.70473635     0.43490
H3236       H  0.64505564  0.39708728  0.67000450     0.42460
H3237       H  0.67692551  0.48166127  0.63827783     0.42140
H3238       H  0.65496805  0.49466831  0.59791039     0.40070
H3239       H  0.57336290  0.46895443  0.56101526     0.43210
H3240       H  0.53135302  0.43889436  0.58283472     0.37990
H3241       H  0.98827867  0.35183236  0.61772391     0.44110
H3242       H  0.52116560  0.32279779  0.63537157     0.40520
H3243       H  0.64224627  0.01211284  0.59538753     0.45440
H3244       H  0.50458434  0.41382528  0.57566310     0.44160
H3245       H  0.53365474  0.31681951  0.66016882     0.44300
H3246       H  0.66554346  0.42398729  0.68480410     0.44660
O3247       O  0.64936868  0.11526762  0.82441891    -0.74210
O3248       O  0.68815075  0.11832506  0.81255055    -0.53120
C3249       C  0.66835141  0.12167197  0.80838327     0.79520
O3250       O  0.67251862  0.13038027  0.96184426    -0.58810
O3251       O  0.63688514  0.09145474  0.96853477    -0.51840
C3252       C  0.65231365  0.11593897  0.97479015     0.71530
O3253       O  0.73073899  0.15660221  0.89843695    -0.73370
O3254       O  0.73568921  0.14085507  0.85583492    -0.53940
C3255       C  0.74290744  0.15860577  0.87618832     0.77530
O3256       O  0.59404558  0.07862321  0.88969325    -0.58520
O3257       O  0.59339230  0.06195135  0.93030760    -0.51640
C3258       C  0.58293134  0.06822063  0.91149473     0.74120
Zr3259     Zr  0.63440119  0.09446303  0.86604348     2.54710
O3260       O  0.63213619  0.13404227  0.87554855    -0.79080
O3261       O  0.59757678  0.07561571  0.83264353    -0.92500
Zr3262     Zr  0.69312764  0.12605039  0.92056429     2.64680
O3263       O  0.69344076  0.16715212  0.92214371    -0.97450
O3264       O  0.72765155  0.14216597  0.95641013    -0.79520
O3265       O  0.68007829  0.12043443  0.87322699    -0.82870
O3266       O  0.64743184  0.10200164  0.91295074    -2.17580
O3267       O  0.60743778  0.00083043  0.88578487    -0.66260
O3268       O  0.59321078  0.02207291  0.91476598    -0.50830
C3269       C  0.58920177  0.00302597  0.89724916     0.72510
O3270       O  0.73111835  0.06681782  0.88320185    -0.59170
O3271       O  0.73476251  0.08928229  0.84605864    -0.51150
C3272       C  0.74184703  0.07681318  0.86097292     0.74310
O3273       O  0.67483358  0.03212890  0.95058646    -0.70570
O3274       O  0.63726034  0.03261840  0.96083079    -0.49240
C3275       C  0.65322224  0.02385090  0.96334582     0.75690
O3276       O  0.67383964  0.03348753  0.82828475    -0.65900
O3277       O  0.68901987  0.06855236  0.80580778    -0.53090
C3278       C  0.67793254  0.04379936  0.80567201     0.74070
Zr3279     Zr  0.64058958  0.03108058  0.85880025     2.77540
O3280       O  0.63682073  0.48809193  0.85559102    -0.96640
O3281       O  0.60686740  0.01728888  0.82224209    -0.77470
Zr3282     Zr  0.69774493  0.06288270  0.91521880     2.70070
O3283       O  0.71176335  0.03112030  0.91933823    -0.78710
O3284       O  0.73188426  0.09059409  0.94997595    -0.97800
Zr3285     Zr  0.69836799  0.09718386  0.84884022     2.21500
Zr3286     Zr  0.63376581  0.06097091  0.92964459     2.11130
O3287       O  0.65248578  0.03762417  0.90611570    -2.46480
O3288       O  0.68579821  0.05669780  0.86734492    -0.78510
O3289       O  0.62180806  0.05400264  0.88182120    -0.70700
O3290       O  0.71183381  0.10326031  0.89701256    -2.31660
O3291       O  0.65223503  0.07124936  0.84140668    -2.27870
O3292       O  0.67969129  0.08611017  0.93948452    -0.72460
H3293       H  0.63906474  0.11082498  0.92202277     0.79540
H3294       H  0.73059530  0.11310831  0.89928090     0.80620
H3295       H  0.64637857  0.02062743  0.91191549     0.82850
H3296       H  0.64729366  0.06877914  0.82205276     0.80460
H3297       H  0.74285941  0.14309381  0.94684590     0.43490
H3298       H  0.72683131  0.08095254  0.96654327     0.42460
H3299       H  0.69977056  0.01610904  0.90641581     0.42140
H3300       H  0.65338573  0.49036270  0.84823740     0.40070
H3301       H  0.61572207  0.02696300  0.80639875     0.43210
H3302       H  0.60312189  0.06837919  0.81667270     0.37990
H3303       H  0.65017227  0.14815733  0.87368918     0.44110
H3304       H  0.67508197  0.16270158  0.92453965     0.40520
H3305       H  0.63774428  0.48428736  0.87481135     0.45440
H3306       H  0.59697485  0.09057372  0.82603992     0.44160
H3307       H  0.70258257  0.17662760  0.93993549     0.44300
H3308       H  0.74739909  0.08968159  0.94371119     0.44660
O3309       O  0.53476943  0.17601451  0.70881058    -0.74210
O3310       O  0.54328994  0.14582790  0.72473008    -0.53120
C3311       C  0.53045375  0.15818851  0.72484075     0.79520
O3312       O  0.52887993  0.14777439  0.58059715    -0.58810
O3313       O  0.56654184  0.18039174  0.56610832    -0.51840
C3314       C  0.54207791  0.16336140  0.56299510     0.71530
O3315       O  0.50788552  0.11162327  0.65932766    -0.73370
O3316       O  0.52843728  0.09837160  0.68681064    -0.53940
C3317       C  0.50842623  0.09401259  0.67203961     0.77530
O3318       O  0.57146983  0.23211163  0.64266294    -0.58520
O3319       O  0.59220826  0.23064558  0.60342972    -0.51640
C3320       C  0.58142259  0.24058318  0.61944244     0.74120
Zr3321     Zr  0.56616384  0.19878552  0.67338406     2.54710
O3322       O  0.53158955  0.20977961  0.67678677    -0.79080
O3323       O  0.59036687  0.23430736  0.70886747    -0.92500
Zr3324     Zr  0.53575402  0.13418712  0.62306774     2.64680
O3325       O  0.99087237  0.12486503  0.61626309    -0.97450
O3326       O  0.52421619  0.09445227  0.59369616    -0.79520
O3327       O  0.54397716  0.15301920  0.66892272    -0.82870
O3328       O  0.55719048  0.18004430  0.62674391    -2.17580
O3329       O  0.65981447  0.23590586  0.64680679    -0.66260
O3330       O  0.64097958  0.23030580  0.60392208    -0.50830
C3331       C  0.65961386  0.24276901  0.62230489     0.72510
O3332       O  0.59845681  0.10211199  0.65289415    -0.59170
O3333       O  0.57482580  0.10025065  0.69060512    -0.51150
C3334       C  0.58691138  0.09180244  0.67446610     0.74310
O3335       O  0.62174726  0.14723470  0.58201052    -0.70570
O3336       O  0.61746957  0.18023689  0.56707430    -0.49240
C3337       C  0.62459582  0.16289263  0.56428903     0.75690
O3338       O  0.64179013  0.17712549  0.71109155    -0.65900
O3339       O  0.60305526  0.14610733  0.72587872    -0.53090
C3340       C  0.62820703  0.15876963  0.72655786     0.74070
Zr3341     Zr  0.63330765  0.20004260  0.67553445     2.77540
O3342       O  0.67874979  0.21062685  0.67865047    -0.96640
O3343       O  0.64332389  0.23427680  0.71234569    -0.77470
Zr3344     Zr  0.60308215  0.13566572  0.62539951     2.70070
O3345       O  0.64540942  0.13812019  0.62817871    -0.78710
O3346       O  0.58330135  0.09549757  0.59510178    -0.97800
Zr3347     Zr  0.57009377  0.13885595  0.69094278     2.21500
Zr3348     Zr  0.59795077  0.19320427  0.60554971     2.11130
O3349       O  0.62575806  0.18148301  0.62889701    -2.46480
O3350       O  0.61132102  0.15423883  0.67113715    -0.78510
O3351       O  0.60662681  0.21272804  0.65232939    -0.70700
O3352       O  0.56187033  0.12015762  0.64437341    -2.31660
O3353       O  0.59255228  0.18558828  0.69695194    -2.27870
O3354       O  0.57589382  0.14729187  0.60182423    -0.72460
H3355       H  0.54678930  0.18575143  0.61742322     0.79540
H3356       H  0.55308533  0.10150493  0.64330125     0.80620
H3357       H  0.64219493  0.18761939  0.62013118     0.82850
H3358       H  0.59507860  0.19167621  0.71631681     0.80460
H3359       H  0.52502000  0.08228028  0.60571550     0.43490
H3360       H  0.57624399  0.09935284  0.57884997     0.42460
H3361       H  0.65517304  0.15177941  0.64337145     0.42140
H3362       H  0.68340297  0.20888400  0.65935764     0.40070
H3363       H  0.64700076  0.24957141  0.70264110     0.43210
H3364       H  0.57834827  0.23060580  0.72417828     0.37990
H3365       H  0.51834535  0.19781439  0.66238576     0.44110
H3366       H  0.99208555  0.14193637  0.61523062     0.40520
H3367       H  0.68866832  0.22943683  0.68444527     0.45440
H3368       H  0.59112003  0.24956768  0.70136606     0.44160
H3369       H  0.98498651  0.11589033  0.59746723     0.44300
H3370       H  0.59820283  0.09374874  0.58822215     0.44660
O3371       O  0.82405172  0.46695899  0.68904146    -0.74210
O3372       O  0.85979154  0.46512731  0.70378717    -0.53120
C3373       C  0.84351228  0.47358039  0.70604428     0.79520
O3374       O  0.76507851  0.34110922  0.62827332    -0.58810
O3375       O  0.76181236  0.35162042  0.58486456    -0.51840
C3376       C  0.75298477  0.33695743  0.60493934     0.71530
O3377       O  0.82568676  0.37231578  0.69659229    -0.73370
O3378       O  0.85984587  0.41276914  0.70781514    -0.53940
C3379       C  0.84531609  0.38899418  0.71236489     0.77530
O3380       O  0.76778525  0.42700697  0.61567925    -0.58520
O3381       O  0.76385898  0.40058405  0.57694802    -0.51640
C3382       C  0.75612325  0.41384030  0.59275238     0.74120
Zr3383     Zr  0.80494910  0.43796161  0.64642430     2.54710
O3384       O  0.76865908  0.42166565  0.67692793    -0.79080
O3385       O  0.80345946  0.47733755  0.64034160    -0.92500
Zr3386     Zr  0.80487204  0.37261614  0.65333204     2.64680
O3387       O  0.77165008  0.36392859  0.68692280    -0.97450
O3388       O  0.80116918  0.33011380  0.65325602    -0.79520
O3389       O  0.81998424  0.41570891  0.67276781    -0.82870
O3390       O  0.78900417  0.39458958  0.62767714    -2.17580
O3391       O  0.84821600  0.45979832  0.55444913    -0.66260
O3392       O  0.81240278  0.42080080  0.54032850    -0.50830
C3393       C  0.83030687  0.44437890  0.53662594     0.72510
O3394       O  0.90410123  0.41142879  0.63224067    -0.59170
O3395       O  0.90519647  0.43400681  0.67294582    -0.51150
C3396       C  0.91519380  0.42450911  0.65533326     0.74310
O3397       O  0.84414160  0.36300290  0.56587441    -0.70570
O3398       O  0.80906559  0.36375923  0.54756740    -0.49240
C3399       C  0.82559238  0.35523156  0.54764595     0.75690
O3400       O  0.90315727  0.49057506  0.62723455    -0.65900
O3401       O  0.90473596  0.47913918  0.67011803    -0.53090
C3402       C  0.91418485  0.49471976  0.65131680     0.74070
Zr3403     Zr  0.86450986  0.45970705  0.59909357     2.77540
O3404       O  0.90101583  0.47249417  0.56899611    -0.96640
O3405       O  0.86487131  0.50066796  0.59858787    -0.77470
Zr3406     Zr  0.86387297  0.39460669  0.60486538     2.70070
O3407       O  0.89634377  0.40850417  0.56989810    -0.78710
O3408       O  0.86994803  0.35830040  0.61379151    -0.97800
Zr3409     Zr  0.86600950  0.43723531  0.66891274     2.21500
Zr3410     Zr  0.80174750  0.39394424  0.58066878     2.11130
O3411       O  0.84832965  0.41646351  0.57896080    -2.46480
O3412       O  0.88068676  0.43789632  0.62336853    -0.78510
O3413       O  0.81844905  0.43783772  0.60045765    -0.70700
O3414       O  0.85059868  0.39357804  0.65047209    -2.31660
O3415       O  0.85075450  0.46035841  0.64427283    -2.27870
O3416       O  0.81791770  0.37223822  0.60714954    -0.72460
H3417       H  0.77026485  0.38599145  0.62830950     0.79540
H3418       H  0.85817980  0.38533334  0.66035384     0.80620
H3419       H  0.85349453  0.41632920  0.56015036     0.82850
H3420       H  0.85808392  0.47811994  0.65201840     0.80460
H3421       H  0.81779314  0.33242065  0.64603828     0.43490
H3422       H  0.85250101  0.34281295  0.61031709     0.42460
H3423       H  0.90792045  0.42722373  0.57520311     0.42140
H3424       H  0.89427616  0.45937037  0.55284164     0.40070
H3425       H  0.84623823  0.49580045  0.59756271     0.43210
H3426       H  0.82143826  0.49160433  0.64497123     0.37990
H3427       H  0.77568023  0.41873237  0.69385691     0.44110
H3428       H  0.75847691  0.36669237  0.67757625     0.40520
H3429       H  0.90334695  0.48851998  0.56184287     0.45440
H3430       H  0.79311687  0.47888103  0.65566244     0.44160
H3431       H  0.76299031  0.34498286  0.68793550     0.44300
H3432       H  0.88032012  0.35687965  0.59843338     0.44660
C3433       C  0.97190834  0.06011403  0.64191264     0.24670
C3434       C  0.98518012  0.06790590  0.66786006    -0.23430
C3435       C  0.97585731  0.05066004  0.68838099     0.19580
C3436       C  0.95280157  0.02667566  0.68330434     0.24620
C3437       C  0.93921557  0.01933579  0.65728938    -0.23380
C3438       C  0.94968342  0.03627973  0.63654862     0.19520
F3439       F  0.93849477  0.03015691  0.61067986    -0.13340
F3440       F  0.98055155  0.07552077  0.62107976    -0.15700
F3441       F  0.94377242  0.01091098  0.70392458    -0.15700
F3442       F  0.98850616  0.05721866  0.71346903    -0.13340
C3443       C  0.69844107  0.26741015  0.59369296     0.24670
C3444       C  0.68213690  0.26723712  0.61495770    -0.23430
C3445       C  0.68728727  0.29083081  0.62917909     0.19580
C3446       C  0.70903011  0.31402307  0.62330718     0.24620
C3447       C  0.72639777  0.31417792  0.60333843    -0.23380
C3448       C  0.72065062  0.29070571  0.58816095     0.19520
F3449       F  0.73746875  0.29005369  0.56950618    -0.13340
F3450       F  0.69371961  0.24483331  0.57946731    -0.15700
F3451       F  0.71412952  0.33635544  0.63841903    -0.15700
F3452       F  0.67145469  0.29134864  0.64918130    -0.13340
C3453       C  0.63095943  0.12328011  0.74787195     0.24670
C3454       C  0.64193838  0.14995190  0.74512990    -0.23430
C3455       C  0.66548698  0.16716804  0.76021449     0.19580
C3456       C  0.67632794  0.15797493  0.77929008     0.24620
C3457       C  0.66440305  0.13134561  0.78269631    -0.23380
C3458       C  0.64220456  0.11417780  0.76595565     0.19520
F3459       F  0.62996155  0.08841109  0.76890335    -0.13340
F3460       F  0.60865138  0.10574134  0.73360524    -0.15700
F3461       F  0.69728281  0.17518687  0.79575319    -0.15700
F3462       F  0.67696087  0.19298257  0.75798181    -0.13340
C3463       C  0.66247930  0.14021199  0.52104534     0.24670
C3464       C  0.64603143  0.12949732  0.99730737    -0.23430
C3465       C  0.62590463  0.13522126  0.99340715     0.19580
C3466       C  0.62096553  0.14980399  0.51414449     0.24620
C3467       C  0.63597352  0.15856017  0.53899548    -0.23380
C3468       C  0.65742902  0.15453135  0.54181458     0.19520
F3469       F  0.67224355  0.16279068  0.56571054    -0.13340
F3470       F  0.68279761  0.13592016  0.52453480    -0.15700
F3471       F  0.60036778  0.15363012  0.51084856    -0.15700
F3472       F  0.61099991  0.12655074  0.96958232    -0.13340
C3473       C  0.65418998  0.47749518  0.51314253     0.24670
C3474       C  0.62739857  0.45987284  0.51495889    -0.23430
C3475       C  0.60967232  0.46240318  0.49805579     0.19580
C3476       C  0.61819791  0.48277455  0.98112277     0.24620
C3477       C  0.64488029  0.00135830  0.98040877    -0.23380
C3478       C  0.66287624  0.49773116  0.99574853     0.19520
F3479       F  0.68875505  0.01483189  0.99548466    -0.13340
F3480       F  0.67183038  0.47644572  0.53003309    -0.15700
F3481       F  0.60006800  0.48461805  0.96585800    -0.15700
F3482       F  0.58367730  0.44647747  0.49994453    -0.13340
C3483       C  0.63445998  0.48413873  0.75791577     0.24670
C3484       C  0.64554058  0.49024710  0.73236962    -0.23430
C3485       C  0.66833761  0.01426442  0.73060891     0.19580
C3486       C  0.67926540  0.03217343  0.75422903     0.24620
C3487       C  0.66780940  0.02591320  0.77986989    -0.23380
C3488       C  0.64542346  0.00149400  0.78114857     0.19520
F3489       F  0.63313529  0.99434481  0.80485249    -0.13340
F3490       F  0.61264036  0.46109335  0.76050188    -0.15700
F3491       F  0.70099379  0.05531270  0.75208746    -0.15700
F3492       F  0.67939506  0.52071617  0.70598826    -0.13340
C3493       C  0.56373700  0.04434599  0.67875423     0.24670
C3494       C  0.58722191  0.06792320  0.67928207    -0.23430
C3495       C  0.61084785  0.06764498  0.67691046     0.19580
C3496       C  0.61086150  0.04426857  0.67161505     0.24620
C3497       C  0.58729432  0.02081852  0.66902475    -0.23380
C3498       C  0.56379553  0.02085922  0.67378731     0.19520
F3499       F  0.54076962  0.49829023  0.67133063    -0.13340
F3500       F  0.54064188  0.04409891  0.68018889    -0.15700
F3501       F  0.63380877  0.04453751  0.66806763    -0.15700
F3502       F  0.63381893  0.09021439  0.67783198    -0.13340
C3503       C  0.55646803  0.28687007  0.60678554     0.24670
C3504       C  0.57888031  0.30866958  0.59854047    -0.23430
C3505       C  0.60148105  0.30675147  0.59442421     0.19580
C3506       C  0.60207114  0.28419443  0.60003283     0.24620
C3507       C  0.58021213  0.26334017  0.61048659    -0.23380
C3508       C  0.55720661  0.26469343  0.61297288     0.19520
F3509       F  0.53545501  0.24465862  0.62196440    -0.13340
F3510       F  0.53409740  0.28771239  0.61055467    -0.15700
F3511       F  0.62464141  0.28356048  0.59724812    -0.15700
F3512       F  0.62364517  0.32748107  0.58740502    -0.13340
C3513       C  0.70676898  0.43655099  0.59313410     0.24670
C3514       C  0.68330033  0.41340779  0.58607679    -0.23430
C3515       C  0.68462707  0.39130823  0.57569740     0.19580
C3516       C  0.70872963  0.39165191  0.57553598     0.24620
C3517       C  0.73183267  0.41426069  0.58536937    -0.23380
C3518       C  0.73062748  0.43699938  0.59269801     0.19520
F3519       F  0.75256987  0.45955433  0.60105217    -0.13340
F3520       F  0.70650720  0.45865536  0.60194457    -0.15700
F3521       F  0.70910580  0.36938529  0.56807792    -0.15700
F3522       F  0.66250076  0.36890756  0.56779164    -0.13340
C3523       C  0.97395756  0.42404230  0.68558621     0.24670
C3524       C  0.98936765  0.42986614  0.66242841    -0.23430
C3525       C  0.98211353  0.43799785  0.63945607     0.19580
C3526       C  0.95863379  0.43782686  0.63832525     0.24620
C3527       C  0.94193582  0.42979382  0.66027808    -0.23380
C3528       C  0.95017059  0.42410271  0.68454519     0.19520
F3529       F  0.93436390  0.41658741  0.70610822    -0.13340
F3530       F  0.98083307  0.41637345  0.70804448    -0.15700
F3531       F  0.95147119  0.44410886  0.61494583    -0.15700
F3532       F  0.99709043  0.44445947  0.61712045    -0.13340
C3533       C  0.52879337  0.14377846  0.51509523     0.24670
C3534       C  0.52690917  0.15920446  0.53736895    -0.23430
C3535       C  0.00449729  0.16184378  0.53885335     0.19580
C3536       C  0.98384540  0.14828228  0.51913187     0.24620
C3537       C  0.98502439  0.13134335  0.99803826    -0.23380
C3538       C  0.50810949  0.13011807  0.99552084     0.19520
F3539       F  0.51065633  0.11576487  0.97391142    -0.13340
F3540       F  0.54965579  0.14004856  0.51369456    -0.15700
F3541       F  0.96221130  0.15070594  0.52140086    -0.15700
F3542       F  0.00184415  0.17601563  0.56065841    -0.13340
C3543       C  0.98192034  0.15878376  0.77735456     0.24670
C3544       C  0.96877729  0.13268755  0.78304423    -0.23430
C3545       C  0.97437870  0.11513686  0.76764907     0.19580
C3546       C  0.49387610  0.12355916  0.74856244     0.24620
C3547       C  0.50828264  0.14986008  0.74379775    -0.23380
C3548       C  0.00125648  0.16725325  0.75750156     0.19520
F3549       F  0.01424234  0.19267384  0.75310099    -0.13340
F3550       F  0.97735973  0.17631119  0.79228726    -0.15700
F3551       F  0.49913334  0.10584457  0.73523780    -0.15700
F3552       F  0.96228292  0.08986936  0.77281774    -0.13340
C3553       C  0.86664021  0.48037601  0.47813619     0.24670
C3554       C  0.85816120  0.99865477  0.97706777    -0.23430
C3555       C  0.83565229  0.49427590  0.99122027     0.19580
C3556       C  0.82353812  0.47359908  0.50796797     0.24620
C3557       C  0.83301879  0.45623397  0.51028186    -0.23380
C3558       C  0.85415244  0.45944738  0.49430069     0.19520
F3559       F  0.86448292  0.44373250  0.49663344    -0.13340
F3560       F  0.88752452  0.98305709  0.46397219    -0.15700
F3561       F  0.80405740  0.47200045  0.52399919    -0.15700
F3562       F  0.82648729  0.01111161  0.99050720    -0.13340
C3563       C  0.84327320  0.49926649  0.77930877     0.24670
C3564       C  0.85912821  0.02642315  0.77872513    -0.23430
C3565       C  0.86776844  0.03601376  0.75299333     0.19580
C3566       C  0.86183437  0.01885616  0.72896473     0.24620
C3567       C  0.84735311  0.49192182  0.73027616    -0.23380
C3568       C  0.83786347  0.48235910  0.75548657     0.19520
F3569       F  0.82395707  0.45641505  0.75721930    -0.13340
F3570       F  0.83358673  0.48868929  0.80316923    -0.15700
F3571       F  0.87114750  0.02847498  0.70460627    -0.15700
F3572       F  0.88295851  0.06181199  0.75120254    -0.13340
C3573       C  0.54045519  0.05614068  0.88956792     0.24670
C3574       C  0.55609070  0.06311058  0.91388635    -0.23430
C3575       C  0.54680574  0.06797051  0.93899501     0.19580
C3576       C  0.52338360  0.06859657  0.93911518     0.24620
C3577       C  0.50973046  0.06510230  0.91405175    -0.23380
C3578       C  0.51771325  0.05747188  0.88958016     0.19520
F3579       F  0.50378937  0.05196088  0.86537811    -0.13340
F3580       F  0.54788239  0.04922380  0.86536588    -0.15700
F3581       F  0.51506043  0.07421012  0.96332141    -0.15700
F3582       F  0.56120799  0.07396496  0.96290811    -0.13340
C3583       C  0.78687899  0.09490625  0.84364353     0.24670
C3584       C  0.76446813  0.07405663  0.85299094    -0.23430
C3585       C  0.76511816  0.05164481  0.85853205     0.19580
C3586       C  0.78846861  0.05125173  0.85797317     0.24620
C3587       C  0.81163624  0.07335495  0.85210224    -0.23380
C3588       C  0.81045217  0.09465177  0.84337394     0.19520
F3589       F  0.83244161  0.11616625  0.83723299    -0.13340
F3590       F  0.78658648  0.11644972  0.83725143    -0.15700
F3591       F  0.78870571  0.02975362  0.86480845    -0.15700
F3592       F  0.74337117  0.03056127  0.86595163    -0.13340
C3593       C  0.97389908  0.34706382  0.00173909     0.24670
C3594       C  0.96824505  0.32422935  0.98553677    -0.23430
C3595       C  0.98498191  0.31381538  0.98872534     0.19580
C3596       C  0.50661214  0.32603679  0.50810815     0.24620
C3597       C  0.51297149  0.34997044  0.52279700    -0.23380
C3598       C  0.49646248  0.36034314  0.51858582     0.19520
F3599       F  0.50234283  0.38393817  0.53097652    -0.13340
F3600       F  0.95900490  0.35833624  0.99872025    -0.15700
F3601       F  0.52112034  0.31461820  0.51238189    -0.15700
F3602       F  0.98076278  0.29230347  0.97258555    -0.13340
C3603       C  0.99470574  0.36581489  0.72821375     0.24670
C3604       C  0.52138692  0.37526418  0.73367365    -0.23430
C3605       C  0.53052743  0.37609993  0.76047801     0.19580
C3606       C  0.51306877  0.36754336  0.78171027     0.24620
C3607       C  0.98644779  0.35858987  0.77635217    -0.23380
C3608       C  0.97734821  0.35774635  0.74950743     0.19520
F3609       F  0.95168456  0.34915331  0.74399936    -0.13340
F3610       F  0.98562711  0.36503421  0.70236086    -0.15700
F3611       F  0.52222243  0.36891587  0.80769089    -0.15700
F3612       F  0.55632698  0.38554845  0.76608621    -0.13340
C3613       C  0.89707799  0.43797029  0.88174478     0.24670
C3614       C  0.91982296  0.43766227  0.87400796    -0.23430
C3615       C  0.94418317  0.46012425  0.87841813     0.19580
C3616       C  0.94568012  0.48275925  0.89082053     0.24620
C3617       C  0.92291497  0.48266169  0.89917927    -0.23380
C3618       C  0.89871649  0.46009827  0.89502751     0.19520
F3619       F  0.87644745  0.46025269  0.90184330    -0.13340
F3620       F  0.87336066  0.41627247  0.87761122    -0.15700
F3621       F  0.96896512  0.00496605  0.89349448    -0.15700
F3622       F  0.96637397  0.45979819  0.87179503    -0.13340
C3623       C  0.90553139  0.21227245  0.85592833     0.24670
C3624       C  0.90550535  0.22532481  0.88152979    -0.23430
C3625       C  0.90371038  0.21363062  0.90579743     0.19580
C3626       C  0.90381973  0.19033547  0.90473208     0.24620
C3627       C  0.90609799  0.17837815  0.87937962    -0.23380
C3628       C  0.90595432  0.18905407  0.85489973     0.19520
F3629       F  0.90748691  0.17778017  0.83008123    -0.13340
F3630       F  0.90571569  0.22220535  0.83180527    -0.15700
F3631       F  0.90222158  0.17980522  0.92879573    -0.15700
F3632       F  0.90318437  0.22527500  0.93080508    -0.13340
C3633       C  0.53369255  0.44612732  0.85671099     0.24670
C3634       C  0.51361532  0.44058669  0.87458488    -0.23430
C3635       C  0.51723566  0.45720231  0.89838515     0.19580
C3636       C  0.54169294  0.47836036  0.90551752     0.24620
C3637       C  0.56267659  0.48261421  0.88901036    -0.23380
C3638       C  0.55817940  0.46698011  0.86384683     0.19520
F3639       F  0.57762626  0.47103434  0.84656162    -0.13340
F3640       F  0.53024847  0.42988250  0.83382036    -0.15700
F3641       F  0.54511469  0.49345396  0.92935177    -0.15700
F3642       F  0.49748126  0.45172072  0.91569048    -0.13340
C3643       C  0.81405073  0.20612206  0.86948224     0.24670
C3644       C  0.81582176  0.22838284  0.88379583    -0.23430
C3645       C  0.79342936  0.22827340  0.89327422     0.19580
C3646       C  0.76938829  0.20584478  0.88916763     0.24620
C3647       C  0.76743243  0.18309325  0.87553843    -0.23380
C3648       C  0.78991276  0.18347896  0.86542217     0.19520
F3649       F  0.78866916  0.16182238  0.85253050    -0.13340
F3650       F  0.83563036  0.20648179  0.85925422    -0.15700
F3651       F  0.74794480  0.20636384  0.89853136    -0.15700
F3652       F  0.79483954  0.25015163  0.90594971    -0.13340
C3653       C  0.82557469  0.32539673  0.97565033     0.24670
C3654       C  0.84333777  0.31629934  0.97992816    -0.23430
C3655       C  0.84843927  0.31334080  0.50701166     0.19580
C3656       C  0.83928192  0.32285205  0.52925574     0.24620
C3657       C  0.82561502  0.33645263  0.52492457    -0.23380
C3658       C  0.81720069  0.33577281  0.99781951     0.19520
F3659       F  0.80325619  0.34755615  0.99242729    -0.13340
F3660       F  0.81871649  0.32702415  0.94962323    -0.15700
F3661       F  0.84582465  0.32070402  0.55520228    -0.15700
F3662       F  0.86471562  0.30405140  0.51214838    -0.13340
C3663       C  0.83707682  0.35554468  0.74549186     0.24670
C3664       C  0.85325946  0.38007966  0.73625177    -0.23430
C3665       C  0.87855513  0.39538782  0.74848206     0.19580
C3666       C  0.88761089  0.38635852  0.76875826     0.24620
C3667       C  0.87169989  0.36167286  0.77781704    -0.23380
C3668       C  0.84615706  0.34647533  0.76609996     0.19520
F3669       F  0.82997426  0.32264782  0.77418247    -0.13340
F3670       F  0.81248517  0.34015014  0.73452744    -0.15700
F3671       F  0.91228343  0.40218127  0.77936577    -0.15700
F3672       F  0.89526545  0.41906508  0.74034928    -0.13340
O3673       O  0.86609893  0.83203633  0.31098298    -0.74210
O3674       O  0.90618316  0.86661812  0.30675613    -0.53120
C3675       C  0.88188673  0.85264643  0.29977225     0.79520
O3676       O  0.86859724  0.83868195  0.44510262    -0.58810
O3677       O  0.87020893  0.80227477  0.45232297    -0.51840
C3678       C  0.86171146  0.81857463  0.45770247     0.71530
O3679       O  0.90652501  0.89915666  0.39088948    -0.73370
O3680       O  0.92975287  0.90678316  0.35200876    -0.53940
C3681       C  0.91845664  0.91282588  0.37140989     0.77530
O3682       O  0.84156274  0.76558785  0.36321992    -0.58520
O3683       O  0.85607364  0.76068455  0.40475429    -0.51640
C3684       C  0.83964518  0.75303944  0.38401259     0.74120
Zr3685     Zr  0.86954953  0.80695307  0.34644116     2.54710
O3686       O  0.82674386  0.80330699  0.34981129    -0.79080
O3687       O  0.85627233  0.77604754  0.30559601    -0.92500
Zr3688     Zr  0.89617204  0.85992589  0.40926378     2.64680
O3689       O  0.85766675  0.86471048  0.40551470    -0.97450
O3690       O  0.91362064  0.89126109  0.44975260    -0.79520
O3691       O  0.89119920  0.85151726  0.36083825    -0.82870
O3692       O  0.87314768  0.81539055  0.39528154    -2.17580
O3693       O  0.92017709  0.76445215  0.36228210    -0.66260
O3694       O  0.90162235  0.76018250  0.40410472    -0.50830
C3695       C  0.90913966  0.75164547  0.38281469     0.72510
O3696       O  0.99079670  0.90157174  0.39251930    -0.59170
O3697       O  0.97523213  0.90708105  0.35223852    -0.51150
C3698       C  0.99175582  0.91473479  0.37267531     0.74310
O3699       O  0.96922249  0.83731636  0.44290091    -0.70570
O3700       O  0.92919637  0.80612444  0.45473895    -0.49240
C3701       C  0.95430821  0.82089264  0.45895872     0.75690
O3702       O  0.96402728  0.83132500  0.31090169    -0.65900
O3703       O  0.95879992  0.86622589  0.30560314    -0.53090
C3704       C  0.96850213  0.85149356  0.29899246     0.74070
Zr3705     Zr  0.93580052  0.80663914  0.34658802     2.77540
O3706       O  0.97434009  0.80181753  0.34961123    -0.96640
O3707       O  0.91858355  0.77668313  0.30506024    -0.77470
Zr3708     Zr  0.96284642  0.86009950  0.40866895     2.70070
O3709       O  0.00598877  0.86459850  0.40521817    -0.78710
O3710       O  0.97665592  0.89189900  0.44876781    -0.97800
Zr3711     Zr  0.93373133  0.86843383  0.34396940     2.21500
Zr3712     Zr  0.89841077  0.79891554  0.41506171     2.11130
O3713       O  0.94029196  0.81512490  0.39534378    -2.46480
O3714       O  0.95945637  0.85141376  0.36033214    -0.78510
O3715       O  0.89441101  0.79046561  0.36561569    -0.70700
O3716       O  0.93824865  0.87784490  0.39262493    -2.31660
O3717       O  0.91125255  0.82373014  0.32784064    -2.27870
O3718       O  0.92154522  0.84401039  0.42879801    -0.72460
H3719       H  0.85575057  0.80752146  0.40199401     0.79540
H3720       H  0.94710356  0.89619926  0.39816544     0.80620
H3721       H  0.94931837  0.80676108  0.40210471     0.82850
H3722       H  0.91007267  0.82116842  0.30793928     0.80460
H3723       H  0.92989847  0.90580690  0.44380989     0.43490
H3724       H  0.96100589  0.88625732  0.45980990     0.42460
H3725       H  0.50397629  0.85166322  0.38987162     0.42140
H3726       H  0.97395389  0.79553014  0.36785710     0.40070
H3727       H  0.89977797  0.76584436  0.30805270     0.43210
H3728       H  0.86521412  0.78654542  0.29027941     0.37990
H3729       H  0.83040231  0.82128292  0.35464845     0.44110
H3730       H  0.84280962  0.84679906  0.40340118     0.40520
H3731       H  0.97047566  0.78680580  0.33619709     0.45440
H3732       H  0.83766184  0.77056280  0.30212337     0.44160
H3733       H  0.85619705  0.87193240  0.42406712     0.44300
H3734       H  0.98876745  0.88878805  0.45971794     0.44660
O3735       O  0.91979678  0.65392937  0.40180594    -0.74210
O3736       O  0.90311154  0.63949474  0.35761679    -0.53120
C3737       C  0.90993667  0.65579011  0.37928892     0.79520
O3738       O  0.98852785  0.58277021  0.39096337    -0.58810
O3739       O  0.97157498  0.56434676  0.43056662    -0.51840
C3740       C  0.98863478  0.57124844  0.41209988     0.71530
O3741       O  0.96928001  0.61970864  0.32625283    -0.73370
O3742       O  0.93231756  0.61998047  0.31306392    -0.53940
C3743       C  0.95587709  0.62440642  0.30936294     0.77530
O3744       O  0.95688658  0.63134958  0.46422225    -0.58520
O3745       O  0.95557452  0.59304003  0.46979413    -0.51640
C3746       C  0.96387289  0.61739668  0.47656750     0.74120
Zr3747     Zr  0.93066740  0.62538844  0.42316207     2.54710
O3748       O  0.96747006  0.66927489  0.42875490    -0.79080
O3749       O  0.90761299  0.63521259  0.45947253    -0.92500
Zr3750     Zr  0.96502964  0.60096206  0.36918555     2.64680
O3751       O  0.00254633  0.64290716  0.38402905    -0.97450
O3752       O  0.99241613  0.59237685  0.33755886    -0.79520
O3753       O  0.94120459  0.62318721  0.37606479    -0.82870
O3754       O  0.95598736  0.60488232  0.41566425    -2.17580
O3755       O  0.85845063  0.52803087  0.44624931    -0.66260
O3756       O  0.89741844  0.53225532  0.45982807    -0.50830
C3757       C  0.87229445  0.52138803  0.46038885     0.72510
O3758       O  0.86530871  0.53203466  0.32724189    -0.59170
O3759       O  0.88251613  0.56831420  0.30634577    -0.51150
C3760       C  0.86925027  0.54340512  0.30532185     0.74310
O3761       O  0.91254649  0.50857708  0.37781984    -0.70570
O3762       O  0.92947845  0.52201053  0.42204748    -0.49240
C3763       C  0.92206261  0.50624772  0.40015626     0.75690
O3764       O  0.83721842  0.56473793  0.38130207    -0.65900
O3765       O  0.85653968  0.58843635  0.34510647    -0.53090
C3766       C  0.83680171  0.57549799  0.35961314     0.74070
Zr3767     Zr  0.86605572  0.55893346  0.41192295     2.77540
O3768       O  0.82153710  0.52283582  0.40736247    -0.96640
O3769       O  0.85299955  0.58082111  0.44764089    -0.77470
Zr3770     Zr  0.89973245  0.53504044  0.35630114     2.70070
O3771       O  0.86797561  0.98919495  0.34773541    -0.78710
O3772       O  0.91838610  0.52672253  0.31466750    -0.97800
Zr3773     Zr  0.90128129  0.59782485  0.34906313     2.21500
Zr3774     Zr  0.92990890  0.56254247  0.43002515     2.11130
O3775       O  0.88999870  0.53715769  0.40309889    -2.46480
O3776       O  0.87526183  0.55589670  0.36471242    -0.78510
O3777       O  0.90525796  0.58390807  0.43948564    -0.70700
O3778       O  0.92606593  0.57630330  0.34143850    -2.31660
O3779       O  0.89098130  0.60074942  0.39677577    -2.27870
O3780       O  0.93923469  0.55898757  0.38261469    -0.72460
H3781       H  0.97276498  0.61423069  0.42539681     0.79540
H3782       H  0.92945078  0.57457362  0.32220554     0.80620
H3783       H  0.88060746  0.51951602  0.40774665     0.82850
H3784       H  0.88055447  0.60911300  0.39898683     0.80460
H3785       H  0.98034575  0.57542416  0.32741791     0.43490
H3786       H  0.92896337  0.51928812  0.32105034     0.42460
H3787       H  0.85465317  0.48626108  0.36148968     0.42140
H3788       H  0.82324272  0.50709071  0.40472924     0.40070
H3789       H  0.85606807  0.57512723  0.46507677     0.43210
H3790       H  0.89225663  0.63406199  0.44989188     0.37990
H3791       H  0.98228684  0.66761482  0.42143952     0.44110
H3792       H  0.01369563  0.63885370  0.39540932     0.40520
H3793       H  0.81442397  0.52239704  0.42585429     0.45440
H3794       H  0.91895175  0.65391200  0.46511621     0.44160
H3795       H  0.51220636  0.64872661  0.36707290     0.44300
H3796       H  0.90342697  0.51204511  0.30397306     0.44660
O3797       O  0.50818269  0.90975764  0.13651397    -0.74210
O3798       O  0.53050447  0.93462875  0.17579662    -0.53120
C3799       C  0.51052548  0.92389793  0.15885233     0.79520
O3800       O  0.57235711  0.83841617  0.12608353    -0.58810
O3801       O  0.58838530  0.85064508  0.08381129    -0.51660
C3802       C  0.58005021  0.83434493  0.10251921     0.71530
O3803       O  0.54184923  0.86922756  0.19440757    -0.73370
O3804       O  0.55053939  0.91004797  0.20984713    -0.53940
C3805       C  0.53947101  0.88554671  0.21151234     0.77530
O3806       O  0.52110643  0.86688679  0.06790531    -0.58520
O3807       O  0.55682226  0.87033755  0.04624113    -0.51640
C3808       C  0.53194941  0.86251246  0.04705351     0.74120
Zr3809     Zr  0.53413063  0.89807807  0.10685667     2.54710
O3810       O  0.98860243  0.86443138  0.10551912    -0.79080
O3811       O  0.52359301  0.92083597  0.07440276    -0.92500
Zr3812     Zr  0.56673568  0.87059028  0.15376057     2.64680
O3813       O  0.52749719  0.82864660  0.15486067    -0.97450
O3814       O  0.59047724  0.86014930  0.18646067    -0.79520
O3815       O  0.54360917  0.89331877  0.15211664    -0.82870
O3816       O  0.55528672  0.87315104  0.10791472    -2.17580
O3817       O  0.61541097  0.96263319  0.05946851    -0.66260
O3818       O  0.61157520  0.92354648  0.04361871    -0.50830
C3819       C  0.61771076  0.94744987  0.04093098     0.72510
O3820       O  0.64458961  0.96625156  0.19017614    -0.59170
O3821       O  0.60666755  0.96213919  0.20683014    -0.51150
C3822       C  0.63156530  0.97188101  0.20802699     0.74310
O3823       O  0.65951747  0.92387954  0.11815213    -0.70570
O3824       O  0.63771783  0.90011466  0.07800298    -0.49240
C3825       C  0.65837102  0.91215061  0.09429028     0.75690
O3826       O  0.59629568  0.99491595  0.13624913    -0.65900
O3827       O  0.57732728  0.97851149  0.17612751    -0.53090
C3828       C  0.58708237  0.99655810  0.15995657     0.74070
Zr3829     Zr  0.60056711  0.96243553  0.10530323     2.77540
O3830       O  0.64380640  0.00051543  0.10770120    -0.96640
O3831       O  0.58110417  0.98130142  0.07770250    -0.77470
Zr3832     Zr  0.63338221  0.93402508  0.15025069     2.70070
O3833       O  0.67798049  0.96945275  0.15007378    -0.78710
O3834       O  0.64655774  0.91233131  0.18146689    -0.97800
Zr3835     Zr  0.57222022  0.93579635  0.17256862     2.21500
Zr3836     Zr  0.59372861  0.89483003  0.08216016     2.11130
O3837       O  0.62209892  0.93765493  0.10469685    -2.46480
O3838       O  0.61198096  0.95865492  0.15006417    -0.78510
O3839       O  0.57244286  0.92028683  0.08249241    -0.70700
O3840       O  0.59518126  0.91239228  0.17554619    -2.31660
O3841       O  0.56118381  0.94037707  0.12742520    -2.27870
O3842       O  0.60508325  0.89194389  0.12870214    -0.72460
H3843       H  0.54428416  0.85564049  0.09977811     0.79540
H3844       H  0.59938348  0.91170957  0.19449924     0.80620
H3845       H  0.63779934  0.94628624  0.09469672     0.82850
H3846       H  0.55228091  0.95030179  0.12769996     0.80460
H3847       H  0.58441569  0.86291590  0.20473637     0.43490
H3848       H  0.64505562  0.89708728  0.17000452     0.42460
H3849       H  0.67692552  0.98166128  0.13827785     0.42140
H3850       H  0.65496806  0.99466830  0.09791038     0.40070
H3851       H  0.57336327  0.96895477  0.06101513     0.43210
H3852       H  0.53135365  0.93889473  0.08283473     0.37990
H3853       H  0.98827729  0.85183300  0.11772218     0.44110
H3854       H  0.52116562  0.82279779  0.13537160     0.40520
H3855       H  0.64224627  0.51211285  0.09538753     0.45440
H3856       H  0.50458504  0.91382574  0.07566258     0.44160
H3857       H  0.53365476  0.81681952  0.16016885     0.44300
H3858       H  0.66554346  0.92398730  0.18480409     0.44660
O3859       O  0.64936867  0.61526760  0.32441890    -0.74210
O3860       O  0.68815075  0.61832505  0.31255055    -0.53120
C3861       C  0.66835140  0.62167196  0.30838327     0.79520
O3862       O  0.67251861  0.63038026  0.46184426    -0.58810
O3863       O  0.63688513  0.59145473  0.46853476    -0.51840
C3864       C  0.65231364  0.61593896  0.47479015     0.71530
O3865       O  0.73073898  0.65660221  0.39843695    -0.73370
O3866       O  0.73568921  0.64085507  0.35583492    -0.53940
C3867       C  0.74290743  0.65860577  0.37618832     0.77530
O3868       O  0.59404557  0.57862320  0.38969324    -0.58520
O3869       O  0.59339229  0.56195133  0.43030760    -0.51640
C3870       C  0.58293133  0.56822062  0.41149472     0.74120
Zr3871     Zr  0.63440118  0.59446302  0.36604347     2.54710
O3872       O  0.63213618  0.63404225  0.37554853    -0.79080
O3873       O  0.59757677  0.57561569  0.33264352    -0.92500
Zr3874     Zr  0.69312763  0.62605039  0.42056428     2.64680
O3875       O  0.69344074  0.66715211  0.42214370    -0.97450
O3876       O  0.72765153  0.64216597  0.45641013    -0.79520
O3877       O  0.68007828  0.62043442  0.37322698    -0.82870
O3878       O  0.64743183  0.60200162  0.41295073    -2.17580
O3879       O  0.60743779  0.50083041  0.38578487    -0.66260
O3880       O  0.59321077  0.52207289  0.41476597    -0.50830
C3881       C  0.58920177  0.50302595  0.39724916     0.72510
O3882       O  0.73111835  0.56681782  0.38320186    -0.59170
O3883       O  0.73476251  0.58928229  0.34605864    -0.51150
C3884       C  0.74184703  0.57681318  0.36097292     0.74310
O3885       O  0.67483358  0.53212890  0.45058646    -0.70570
O3886       O  0.63726034  0.53261839  0.46083079    -0.49240
C3887       C  0.65322224  0.52385089  0.46334582     0.75690
O3888       O  0.67383964  0.53348752  0.32828475    -0.65900
O3889       O  0.68901987  0.56855235  0.30580778    -0.53090
C3890       C  0.67793254  0.54379935  0.30567201     0.74070
Zr3891     Zr  0.64058958  0.53108056  0.35880025     2.77540
O3892       O  0.63682072  0.98809192  0.35559104    -0.96640
O3893       O  0.60686740  0.51728885  0.32224209    -0.77470
Zr3894     Zr  0.69774493  0.56288270  0.41521880     2.70070
O3895       O  0.71176337  0.53112031  0.41933824    -0.78710
O3896       O  0.73188425  0.59059409  0.44997595    -0.97800
Zr3897     Zr  0.69836799  0.59718385  0.34884022     2.21500
Zr3898     Zr  0.63376580  0.56097090  0.42964459     2.11130
O3899       O  0.65248578  0.53762416  0.40611570    -2.46480
O3900       O  0.68579821  0.55669779  0.36734493    -0.78510
O3901       O  0.62180806  0.55400262  0.38182120    -0.70700
O3902       O  0.71183380  0.60326031  0.39701255    -2.31660
O3903       O  0.65223502  0.57124934  0.34140667    -2.27870
O3904       O  0.67969129  0.58611016  0.43948452    -0.72460
H3905       H  0.63906472  0.61082496  0.42202276     0.79540
H3906       H  0.73059529  0.61310831  0.39928090     0.80620
H3907       H  0.64637857  0.52062743  0.41191549     0.82850
H3908       H  0.64729366  0.56877913  0.32205276     0.80460
H3909       H  0.74285940  0.64309381  0.44684589     0.43490
H3910       H  0.72683131  0.58095255  0.46654328     0.42460
H3911       H  0.69977058  0.51610905  0.40641582     0.42140
H3912       H  0.65338572  0.99036269  0.34823741     0.40070
H3913       H  0.61572207  0.52696299  0.30639876     0.43210
H3914       H  0.60312188  0.56837916  0.31667269     0.37990
H3915       H  0.65017225  0.64815731  0.37368918     0.44110
H3916       H  0.67508195  0.66270157  0.42453964     0.40520
H3917       H  0.63774427  0.98428735  0.37481136     0.45440
H3918       H  0.59697484  0.59057369  0.32603991     0.44160
H3919       H  0.70258255  0.67662759  0.43993548     0.44300
H3920       H  0.74739909  0.58968160  0.44371119     0.44660
O3921       O  0.53476943  0.67601451  0.20881058    -0.74210
O3922       O  0.54328994  0.64582790  0.22473008    -0.53120
C3923       C  0.53045375  0.65818852  0.22484075     0.79520
O3924       O  0.52887993  0.64777440  0.08059715    -0.58810
O3925       O  0.56654184  0.68039174  0.06610832    -0.51840
C3926       C  0.54207791  0.66336141  0.06299510     0.71530
O3927       O  0.50788552  0.61162327  0.15932766    -0.73370
O3928       O  0.52843727  0.59837160  0.18681064    -0.53940
C3929       C  0.50842623  0.59401260  0.17203961     0.77530
O3930       O  0.57146983  0.73211164  0.14266295    -0.58520
O3931       O  0.59220826  0.73064558  0.10342972    -0.51640
C3932       C  0.58142259  0.74058318  0.11944244     0.74120
Zr3933     Zr  0.56616384  0.69878553  0.17338407     2.54710
O3934       O  0.53158956  0.70977962  0.17678678    -0.79080
O3935       O  0.59036688  0.73430737  0.20886747    -0.92500
Zr3936     Zr  0.53575402  0.63418712  0.12306774     2.64680
O3937       O  0.99087236  0.62486504  0.11626309    -0.97450
O3938       O  0.52421618  0.59445227  0.09369616    -0.79520
O3939       O  0.54397716  0.65301920  0.16892272    -0.82870
O3940       O  0.55719048  0.68004431  0.12674392    -2.17580
O3941       O  0.65981447  0.73590586  0.14680679    -0.66260
O3942       O  0.64097958  0.73030580  0.10392208    -0.50830
C3943       C  0.65961386  0.74276901  0.12230490     0.72510
O3944       O  0.59845680  0.60211198  0.15289414    -0.59170
O3945       O  0.57482580  0.60025065  0.19060511    -0.51150
C3946       C  0.58691137  0.59180244  0.17446610     0.74310
O3947       O  0.62174726  0.64723470  0.08201051    -0.70570
O3948       O  0.61746957  0.68023689  0.06707430    -0.49240
C3949       C  0.62459581  0.66289263  0.06428903     0.75690
O3950       O  0.64179013  0.67712549  0.21109155    -0.65900
O3951       O  0.60305525  0.64610733  0.22587872    -0.53090
C3952       C  0.62820702  0.65876963  0.22655786     0.74070
Zr3953     Zr  0.63330765  0.70004260  0.17553445     2.77540
O3954       O  0.67874979  0.71062684  0.17865046    -0.96640
O3955       O  0.64332389  0.73427680  0.21234569    -0.77470
Zr3956     Zr  0.60308215  0.63566572  0.12539950     2.70070
O3957       O  0.64540941  0.63812019  0.12817869    -0.78710
O3958       O  0.58330133  0.59549757  0.09510178    -0.97800
Zr3959     Zr  0.57009377  0.63885595  0.19094278     2.21500
Zr3960     Zr  0.59795077  0.69320427  0.10554971     2.11130
O3961       O  0.62575805  0.68148301  0.12889701    -2.46480
O3962       O  0.61132101  0.65423883  0.17113714    -0.78510
O3963       O  0.60662682  0.71272804  0.15232939    -0.70700
O3964       O  0.56187032  0.62015762  0.14437340    -2.31660
O3965       O  0.59255228  0.68558828  0.19695194    -2.27870
O3966       O  0.57589382  0.64729187  0.10182423    -0.72460
H3967       H  0.54678930  0.68575144  0.11742322     0.79540
H3968       H  0.55308532  0.60150493  0.14330125     0.80620
H3969       H  0.64219493  0.68761939  0.12013118     0.82850
H3970       H  0.59507860  0.69167621  0.21631681     0.80460
H3971       H  0.52501998  0.58228028  0.10571550     0.43490
H3972       H  0.57624397  0.59935284  0.07884997     0.42460
H3973       H  0.65517304  0.65177940  0.14337144     0.42140
H3974       H  0.68340296  0.70888399  0.15935762     0.40070
H3975       H  0.64700077  0.74957140  0.20264110     0.43210
H3976       H  0.57834827  0.73060581  0.22417828     0.37990
H3977       H  0.51834536  0.69781441  0.16238577     0.44110
H3978       H  0.99208554  0.64193638  0.11523063     0.40520
H3979       H  0.68866832  0.72943682  0.18444525     0.45440
H3980       H  0.59112005  0.74956768  0.20136606     0.44160
H3981       H  0.98498651  0.61589033  0.09746723     0.44300
H3982       H  0.59820281  0.59374874  0.08822214     0.44660
O3983       O  0.82405181  0.96695898  0.18904146    -0.74210
O3984       O  0.85979162  0.96512728  0.20378712    -0.53120
C3985       C  0.84351238  0.97358037  0.20604426     0.79520
O3986       O  0.76507850  0.84110922  0.12827330    -0.58810
O3987       O  0.76181232  0.85162042  0.08486455    -0.51840
C3988       C  0.75298474  0.83695743  0.10493932     0.71530
O3989       O  0.82568677  0.87231575  0.19659224    -0.73370
O3990       O  0.85984593  0.91276909  0.20781506    -0.53940
C3991       C  0.84531612  0.88899414  0.21236482     0.77530
O3992       O  0.76778527  0.92700699  0.11567928    -0.58520
O3993       O  0.76385896  0.90058407  0.07694804    -0.51640
C3994       C  0.75612326  0.91384032  0.09275242     0.74120
Zr3995     Zr  0.80494915  0.93796162  0.14642430     2.54710
O3996       O  0.76865915  0.92166567  0.17692797    -0.79080
O3997       O  0.80345952  0.97733757  0.14034163    -0.92500
Zr3998     Zr  0.80487203  0.87261612  0.15333201     2.64680
O3999       O  0.77165009  0.86392858  0.18692278    -0.97450
O4000       O  0.80116918  0.83011379  0.15325598    -0.79520
O4001       O  0.81998429  0.91570890  0.17276778    -0.82870
O4002       O  0.78900417  0.89458958  0.12767713    -2.17580
O4003       O  0.84821598  0.95979830  0.05444910    -0.66260
O4004       O  0.81240274  0.92080080  0.04032847    -0.50830
C4005       C  0.83030684  0.94437889  0.03662592     0.72510
O4006       O  0.90410104  0.91142851  0.13224063    -0.59170
O4007       O  0.90519653  0.93400677  0.17294569    -0.51150
C4008       C  0.91519373  0.92450891  0.15533315     0.74310
O4009       O  0.84414145  0.86300278  0.06587438    -0.70570
O4010       O  0.80906550  0.86375920  0.04756734    -0.49240
C4011       C  0.82559224  0.85523147  0.04764590     0.75690
O4012       O  0.90315729  0.99057506  0.12723448    -0.65900
O4013       O  0.90473600  0.97913915  0.17011795    -0.53090
C4014       C  0.91418487  0.99471975  0.15131673     0.74070
Zr4015     Zr  0.86450987  0.95970703  0.09909352     2.77540
O4016       O  0.90101582  0.97249415  0.06899603    -0.96640
O4017       O  0.86487131  0.00066794  0.09858784    -0.77470
Zr4018     Zr  0.86387288  0.89460662  0.10486527     2.70070
O4019       O  0.89634364  0.90850421  0.06989794    -0.78710
O4020       O  0.86994811  0.85830038  0.11379121    -0.97800
Zr4021     Zr  0.86600955  0.93723528  0.16891266     2.21500
Zr4022     Zr  0.80174746  0.89394424  0.08066875     2.11130
O4023       O  0.84832961  0.91646349  0.07896073    -2.46480
O4024       O  0.88068676  0.93789626  0.12336843    -0.78510
O4025       O  0.81844905  0.93783772  0.10045764    -0.70700
O4026       O  0.85059867  0.89357800  0.15047200    -2.31660
O4027       O  0.85075454  0.96035839  0.14427280    -2.27870
O4028       O  0.81791764  0.87223817  0.10714948    -0.72460
H4029       H  0.77026485  0.88599147  0.12830951     0.79540
H4030       H  0.85817977  0.88533328  0.16035373     0.80620
H4031       H  0.85349447  0.91632917  0.06015028     0.82850
H4032       H  0.85808398  0.97811992  0.15201837     0.80460
H4033       H  0.81779290  0.83242049  0.14603763     0.43490
H4034       H  0.85250109  0.84281291  0.11031691     0.42460
H4035       H  0.90792028  0.92722377  0.07520296     0.42140
H4036       H  0.89427612  0.95937038  0.05284154     0.40070
H4037       H  0.84623823  0.99580042  0.09756270     0.43210
H4038       H  0.82143833  0.99160435  0.14497125     0.37990
H4039       H  0.77568031  0.91873237  0.19385693     0.44110
H4040       H  0.75847691  0.86669235  0.17757624     0.40520
H4041       H  0.90334697  0.98852000  0.06184285     0.45440
H4042       H  0.79311694  0.97888105  0.15566249     0.44160
H4043       H  0.76299033  0.84498285  0.18793549     0.44300
H4044       H  0.88032011  0.85687963  0.09843298     0.44660
C4045       C  0.97190834  0.56011403  0.14191263     0.24670
C4046       C  0.98518011  0.56790590  0.16786006    -0.23430
C4047       C  0.97585731  0.55066005  0.18838099     0.19580
C4048       C  0.95280157  0.52667566  0.18330433     0.24620
C4049       C  0.93921557  0.51933579  0.15728937    -0.23380
C4050       C  0.94968342  0.53627973  0.13654862     0.19520
F4051       F  0.93849477  0.53015691  0.11067985    -0.13340
F4052       F  0.98055155  0.57552077  0.12107976    -0.15700
F4053       F  0.94377242  0.51091099  0.20392458    -0.15700
F4054       F  0.98850616  0.55721866  0.21346903    -0.13340
C4055       C  0.69844107  0.76741014  0.09369297     0.24670
C4056       C  0.68213689  0.76723712  0.11495770    -0.23430
C4057       C  0.68728725  0.79083081  0.12917908     0.19580
C4058       C  0.70903008  0.81402307  0.12330717     0.24620
C4059       C  0.72639775  0.81417792  0.10333842    -0.23380
C4060       C  0.72065061  0.79070571  0.08816095     0.19520
F4061       F  0.73746874  0.79005369  0.06950619    -0.13340
F4062       F  0.69371961  0.74483330  0.07946732    -0.15700
F4063       F  0.71412949  0.83635544  0.13841901    -0.15700
F4064       F  0.67145467  0.79134864  0.14918128    -0.13340
C4065       C  0.63095942  0.62328011  0.24787194     0.24670
C4066       C  0.64193838  0.64995190  0.24512990    -0.23430
C4067       C  0.66548698  0.66716804  0.26021449     0.19580
C4068       C  0.67632794  0.65797493  0.27929008     0.24620
C4069       C  0.66440304  0.63134560  0.28269631    -0.23380
C4070       C  0.64220456  0.61417780  0.26595564     0.19520
F4071       F  0.62996155  0.58841108  0.26890334    -0.13340
F4072       F  0.60865138  0.60574133  0.23360524    -0.15700
F4073       F  0.69728281  0.67518686  0.29575319    -0.15700
F4074       F  0.67696087  0.69298256  0.25798181    -0.13340
C4075       C  0.66247929  0.64021200  0.02104534     0.24670
C4076       C  0.64603142  0.62949731  0.49730736    -0.23430
C4077       C  0.62590462  0.63522126  0.49340715     0.19580
C4078       C  0.62096553  0.64980399  0.01414448     0.24620
C4079       C  0.63597351  0.65856017  0.03899547    -0.23380
C4080       C  0.65742902  0.65453135  0.04181458     0.19520
F4081       F  0.67224354  0.66279068  0.06571054    -0.13340
F4082       F  0.68279761  0.63592016  0.02453480    -0.15700
F4083       F  0.60036778  0.65363013  0.01084855    -0.15700
F4084       F  0.61099991  0.62655074  0.46958232    -0.13340
C4085       C  0.65418999  0.97749518  0.01314252     0.24670
C4086       C  0.62739858  0.95987285  0.01495889    -0.23430
C4087       C  0.60967233  0.96240320  0.99805580     0.19580
C4088       C  0.61819791  0.98277455  0.48112278     0.24620
C4089       C  0.64488028  0.50135829  0.48040876    -0.23380
C4090       C  0.66287624  0.99773116  0.49574854     0.19520
F4091       F  0.68875504  0.51483189  0.49548467    -0.13340
F4092       F  0.67183039  0.97644572  0.03003308    -0.15700
F4093       F  0.60006800  0.98461804  0.46585801    -0.15700
F4094       F  0.58367730  0.94647749  0.99994455    -0.13340
C4095       C  0.63445995  0.98413872  0.25791577     0.24670
C4096       C  0.64554055  0.99024710  0.23236963    -0.23430
C4097       C  0.66833761  0.51426442  0.23060890     0.19580
C4098       C  0.67926539  0.53217343  0.25422902     0.24620
C4099       C  0.66780940  0.52591319  0.27986989    -0.23380
C4100       C  0.64542346  0.50149399  0.28114857     0.19520
F4101       F  0.63313530  0.49434480  0.30485249    -0.13340
F4102       F  0.61264033  0.96109335  0.26050188    -0.15700
F4103       F  0.70099378  0.55531270  0.25208746    -0.15700
F4104       F  0.67939505  0.02071616  0.20598827    -0.13340
C4105       C  0.56373699  0.54434599  0.17875422     0.24670
C4106       C  0.58722191  0.56792320  0.17928207    -0.23430
C4107       C  0.61084785  0.56764498  0.17691046     0.19580
C4108       C  0.61086150  0.54426857  0.17161505     0.24620
C4109       C  0.58729432  0.52081852  0.16902474    -0.23380
C4110       C  0.56379553  0.52085922  0.17378730     0.19520
F4111       F  0.54076963  0.99829024  0.17133069    -0.13340
F4112       F  0.54064188  0.54409891  0.18018888    -0.15700
F4113       F  0.63380877  0.54453751  0.16806763    -0.15700
F4114       F  0.63381892  0.59021439  0.17783198    -0.13340
C4115       C  0.55646804  0.78687009  0.10678555     0.24670
C4116       C  0.57888032  0.80866959  0.09854047    -0.23430
C4117       C  0.60148105  0.80675147  0.09442421     0.19580
C4118       C  0.60207114  0.78419443  0.10003283     0.24620
C4119       C  0.58021213  0.76334017  0.11048659    -0.23380
C4120       C  0.55720662  0.76469345  0.11297290     0.19520
F4121       F  0.53545502  0.74465864  0.12196443    -0.13340
F4122       F  0.53409742  0.78771242  0.11055469    -0.15700
F4123       F  0.62464141  0.78356047  0.09724810    -0.15700
F4124       F  0.62364517  0.82748107  0.08740500    -0.13340
C4125       C  0.70676899  0.93655102  0.09313415     0.24670
C4126       C  0.68330035  0.91340782  0.08607681    -0.23430
C4127       C  0.68462708  0.89130826  0.07569742     0.19580
C4128       C  0.70872965  0.89165194  0.07553601     0.24620
C4129       C  0.73183268  0.91426072  0.08536942    -0.23380
C4130       C  0.73062748  0.93699940  0.09269808     0.19520
F4131       F  0.75256987  0.95955435  0.10105226    -0.13340
F4132       F  0.70650721  0.95865538  0.10194462    -0.15700
F4133       F  0.70910582  0.86938532  0.06807794    -0.15700
F4134       F  0.66250078  0.86890760  0.06779164    -0.13340
C4135       C  0.97395767  0.92404249  0.18558630     0.24670
C4136       C  0.98936741  0.92986552  0.16242823    -0.23430
C4137       C  0.98211304  0.93799656  0.13945552     0.19580
C4138       C  0.95863338  0.93782572  0.13832468     0.24620
C4139       C  0.94193572  0.92979348  0.16027785    -0.23380
C4140       C  0.95017077  0.92410304  0.18454524     0.19520
F4141       F  0.93436443  0.91658857  0.20610861    -0.13340
F4142       F  0.98083347  0.91637435  0.20804494    -0.15700
F4143       F  0.95147059  0.94410713  0.11494496    -0.15700
F4144       F  0.99708961  0.94445747  0.11711964    -0.13340
C4145       C  0.52879337  0.64377846  0.01509523     0.24670
C4146       C  0.52690917  0.65920446  0.03736895    -0.23430
C4147       C  0.00449729  0.66184378  0.03885335     0.19580
C4148       C  0.98384539  0.64828228  0.01913187     0.24620
C4149       C  0.98502439  0.63134335  0.49803827    -0.23380
C4150       C  0.50810949  0.63011807  0.49552084     0.19520
F4151       F  0.51065632  0.61576487  0.47391142    -0.13340
F4152       F  0.54965578  0.64004855  0.01369457    -0.15700
F4153       F  0.96221129  0.65070594  0.02140086    -0.15700
F4154       F  0.00184415  0.67601564  0.06065841    -0.13340
C4155       C  0.98192034  0.65878376  0.27735456     0.24670
C4156       C  0.96877729  0.63268755  0.28304423    -0.23430
C4157       C  0.97437870  0.61513686  0.26764908     0.19580
C4158       C  0.49387611  0.62355916  0.24856244     0.24620
C4159       C  0.50828264  0.64986008  0.24379775    -0.23380
C4160       C  0.00125648  0.66725325  0.25750156     0.19520
F4161       F  0.01424234  0.69267384  0.25310099    -0.13340
F4162       F  0.97735972  0.67631119  0.29228726    -0.15700
F4163       F  0.49913335  0.60584457  0.23523781    -0.15700
F4164       F  0.96228293  0.58986936  0.27281775    -0.13340
C4165       C  0.86664017  0.98037601  0.97813617     0.24670
C4166       C  0.85816122  0.49865476  0.47706777    -0.23430
C4167       C  0.83565229  0.99427590  0.49122027     0.19580
C4168       C  0.82353810  0.97359909  0.00796796     0.24620
C4169       C  0.83301875  0.95623397  0.01028184    -0.23380
C4170       C  0.85415239  0.95944737  0.99430066     0.19520
F4171       F  0.86448286  0.94373247  0.99663340    -0.13340
F4172       F  0.88752452  0.48305709  0.96397219    -0.15700
F4173       F  0.80405738  0.97200047  0.02399919    -0.15700
F4174       F  0.82648728  0.51111158  0.49050719    -0.13340
C4175       C  0.84327329  0.99926646  0.27930875     0.24670
C4176       C  0.85912821  0.52642315  0.27872513    -0.23430
C4177       C  0.86776848  0.53601376  0.25299333     0.19580
C4178       C  0.86183441  0.51885616  0.22896473     0.24620
C4179       C  0.84735322  0.99192180  0.23027615    -0.23380
C4180       C  0.83786358  0.98235908  0.25548655     0.19520
F4181       F  0.82395719  0.95641502  0.25721928    -0.13340
F4182       F  0.83358681  0.98868926  0.30316921    -0.15700
F4183       F  0.87114757  0.52847498  0.20460628    -0.15700
F4184       F  0.88295858  0.56181199  0.25120255    -0.13340
C4185       C  0.54045518  0.55614067  0.38956792     0.24670
C4186       C  0.55609070  0.56311057  0.41388635    -0.23430
C4187       C  0.54680573  0.56797050  0.43899501     0.19580
C4188       C  0.52338360  0.56859657  0.43911518     0.24620
C4189       C  0.50973046  0.56510230  0.41405175    -0.23380
C4190       C  0.51771324  0.55747187  0.38958016     0.19520
F4191       F  0.50378936  0.55196088  0.36537811    -0.13340
F4192       F  0.54788238  0.54922379  0.36536588    -0.15700
F4193       F  0.51506043  0.57421013  0.46332141    -0.15700
F4194       F  0.56120799  0.57396495  0.46290811    -0.13340
C4195       C  0.78687900  0.59490624  0.34364353     0.24670
C4196       C  0.76446813  0.57405663  0.35299095    -0.23430
C4197       C  0.76511816  0.55164481  0.35853205     0.19580
C4198       C  0.78846861  0.55125172  0.35797318     0.24620
C4199       C  0.81163624  0.57335494  0.35210225    -0.23380
C4200       C  0.81045217  0.59465177  0.34337394     0.19520
F4201       F  0.83244161  0.61616625  0.33723300    -0.13340
F4202       F  0.78658648  0.61644972  0.33725144    -0.15700
F4203       F  0.78870571  0.52975362  0.36480846    -0.15700
F4204       F  0.74337117  0.53056127  0.36595163    -0.13340
C4205       C  0.97389906  0.84706380  0.50173910     0.24670
C4206       C  0.96824504  0.82422933  0.48553677    -0.23430
C4207       C  0.98498191  0.81381538  0.48872534     0.19580
C4208       C  0.50661210  0.82603673  0.00810820     0.24620
C4209       C  0.51297142  0.84997033  0.02279716    -0.23380
C4210       C  0.49646240  0.86034303  0.01858609     0.19520
F4211       F  0.50234270  0.88393797  0.03097697    -0.13340
F4212       F  0.95900486  0.85833621  0.49872026    -0.15700
F4213       F  0.52112030  0.81461814  0.01238184    -0.15700
F4214       F  0.98076279  0.79230347  0.47258555    -0.13340
C4215       C  0.99470572  0.86581490  0.22821374     0.24670
C4216       C  0.52138690  0.87526419  0.23367364    -0.23430
C4217       C  0.53052741  0.87609993  0.26047799     0.19580
C4218       C  0.51306876  0.86754335  0.28171026     0.24620
C4219       C  0.98644777  0.85858987  0.27635216    -0.23380
C4220       C  0.97734819  0.85774636  0.24950742     0.19520
F4221       F  0.95168453  0.84915330  0.24399935    -0.13340
F4222       F  0.98562708  0.86503423  0.20236086    -0.15700
F4223       F  0.52222242  0.86891585  0.30769087    -0.15700
F4224       F  0.55632696  0.88554843  0.26608619    -0.13340
C4225       C  0.89707798  0.93797029  0.38174480     0.24670
C4226       C  0.91982295  0.93766226  0.37400798    -0.23430
C4227       C  0.94418316  0.96012424  0.37841815     0.19580
C4228       C  0.94568012  0.98275924  0.39082055     0.24620
C4229       C  0.92291497  0.98266168  0.39917929    -0.23380
C4230       C  0.89871648  0.96009826  0.39502753     0.19520
F4231       F  0.87644744  0.96025269  0.40184332    -0.13340
F4232       F  0.87336066  0.91627247  0.37761124    -0.15700
F4233       F  0.96896513  0.50496605  0.39349452    -0.15700
F4234       F  0.96637397  0.95979818  0.37179505    -0.13340
C4235       C  0.90553138  0.71227244  0.35592833     0.24670
C4236       C  0.90550535  0.72532480  0.38152979    -0.23430
C4237       C  0.90371038  0.71363062  0.40579743     0.19580
C4238       C  0.90381974  0.69033547  0.40473209     0.24620
C4239       C  0.90609798  0.67837814  0.37937962    -0.23380
C4240       C  0.90595431  0.68905405  0.35489973     0.19520
F4241       F  0.90748689  0.67778016  0.33008123    -0.13340
F4242       F  0.90571567  0.72220534  0.33180527    -0.15700
F4243       F  0.90222159  0.67980522  0.42879574    -0.15700
F4244       F  0.90318437  0.72527500  0.43080508    -0.13340
C4245       C  0.53369254  0.94612733  0.35671099     0.24670
C4246       C  0.51361532  0.94058669  0.37458489    -0.23430
C4247       C  0.51723565  0.95720232  0.39838515     0.19580
C4248       C  0.54169293  0.97836036  0.40551752     0.24620
C4249       C  0.56267658  0.98261421  0.38901036    -0.23380
C4250       C  0.55817940  0.96698012  0.36384684     0.19520
F4251       F  0.57762625  0.97103434  0.34656163    -0.13340
F4252       F  0.53024847  0.92988250  0.33382036    -0.15700
F4253       F  0.54511468  0.99345397  0.42935177    -0.15700
F4254       F  0.49748125  0.95172073  0.41569049    -0.13340
C4255       C  0.81405072  0.70612205  0.36948225     0.24670
C4256       C  0.81582175  0.72838283  0.38379584    -0.23430
C4257       C  0.79342935  0.72827340  0.39327422     0.19580
C4258       C  0.76938828  0.70584478  0.38916762     0.24620
C4259       C  0.76743242  0.68309324  0.37553843    -0.23380
C4260       C  0.78991276  0.68347895  0.36542218     0.19520
F4261       F  0.78866916  0.66182237  0.35253052    -0.13340
F4262       F  0.83563035  0.70648178  0.35925424    -0.15700
F4263       F  0.74794479  0.70636384  0.39853134    -0.15700
F4264       F  0.79483952  0.75015162  0.40594969    -0.13340
C4265       C  0.82557469  0.82539672  0.47565034     0.24670
C4266       C  0.84333777  0.81629933  0.47992817    -0.23430
C4267       C  0.84843915  0.81334074  0.00701162     0.19580
C4268       C  0.83928175  0.82285194  0.02925569     0.24620
C4269       C  0.82561487  0.83645255  0.02492452    -0.23380
C4270       C  0.81720069  0.83577281  0.49781952     0.19520
F4271       F  0.80325619  0.84755615  0.49242731    -0.13340
F4272       F  0.81871648  0.82702413  0.44962324    -0.15700
F4273       F  0.84582442  0.82070385  0.05520223    -0.15700
F4274       F  0.86471548  0.80405132  0.01214835    -0.13340
C4275       C  0.83707681  0.85554469  0.24549188     0.24670
C4276       C  0.85325950  0.88007962  0.23625169    -0.23430
C4277       C  0.87855521  0.89538772  0.24848188     0.19580
C4278       C  0.88761098  0.88635840  0.26875807     0.24620
C4279       C  0.87169992  0.86167281  0.27781697    -0.23380
C4280       C  0.84615704  0.84647534  0.26609998     0.19520
F4281       F  0.82997417  0.82264790  0.27418262    -0.13340
F4282       F  0.81248511  0.84015022  0.23452756    -0.15700
F4283       F  0.91228358  0.90218109  0.27936544    -0.15700
F4284       F  0.89526557  0.91906493  0.24034903    -0.13340
O4285       O  0.86609894  0.83203635  0.81098302    -0.74210
O4286       O  0.90618317  0.86661812  0.80675613    -0.53120
C4287       C  0.88188674  0.85264645  0.79977228     0.79520
O4288       O  0.86859723  0.83868196  0.94510261    -0.58810
O4289       O  0.87020892  0.80227478  0.95232298    -0.51840
C4290       C  0.86171144  0.81857464  0.95770247     0.71530
O4291       O  0.90652501  0.89915666  0.89088946    -0.73370
O4292       O  0.92975287  0.90678317  0.85200875    -0.53940
C4293       C  0.91845664  0.91282589  0.87140987     0.77530
O4294       O  0.84156275  0.76558786  0.86321994    -0.58520
O4295       O  0.85607365  0.76068456  0.90475431    -0.51640
C4296       C  0.83964520  0.75303945  0.88401261     0.74120
Zr4297     Zr  0.86954954  0.80695308  0.84644117     2.54710
O4298       O  0.82674385  0.80330695  0.84981129    -0.79080
O4299       O  0.85627238  0.77604756  0.80559601    -0.92500
Zr4300     Zr  0.89617204  0.85992591  0.90926378     2.64680
O4301       O  0.85766675  0.86471050  0.90551469    -0.97450
O4302       O  0.91362064  0.89126111  0.94975259    -0.79520
O4303       O  0.89119921  0.85151727  0.86083825    -0.82870
O4304       O  0.87314769  0.81539057  0.89528155    -2.17580
O4305       O  0.92017710  0.76445216  0.86228213    -0.66260
O4306       O  0.90162236  0.76018251  0.90410476    -0.50830
C4307       C  0.90913966  0.75164548  0.88281472     0.72510
O4308       O  0.99079671  0.90157177  0.89251930    -0.59170
O4309       O  0.97523214  0.90708106  0.85223851    -0.51150
C4310       C  0.99175582  0.91473480  0.87267531     0.74310
O4311       O  0.96922248  0.83731649  0.94290104    -0.70570
O4312       O  0.92919638  0.80612447  0.95473900    -0.49240
C4313       C  0.95430820  0.82089272  0.95895881     0.75690
O4314       O  0.96402730  0.83132500  0.81090172    -0.65900
O4315       O  0.95879993  0.86622589  0.80560315    -0.53090
C4316       C  0.96850215  0.85149355  0.79899248     0.74070
Zr4317     Zr  0.93580054  0.80663916  0.84658806     2.77540
O4318       O  0.97434011  0.80181755  0.84961129    -0.96640
O4319       O  0.91858358  0.77668314  0.80506029    -0.77470
Zr4320     Zr  0.96284642  0.86009954  0.90866898     2.70070
O4321       O  0.00598876  0.86459848  0.90521820    -0.78710
O4322       O  0.97665591  0.89189906  0.94876781    -0.97800
Zr4323     Zr  0.93373134  0.86843383  0.84396940     2.21500
Zr4324     Zr  0.89841078  0.79891556  0.91506174     2.11130
O4325       O  0.94029198  0.81512493  0.89534383    -2.46480
O4326       O  0.95945639  0.85141378  0.86033216    -0.78510
O4327       O  0.89441103  0.79046563  0.86561572    -0.70700
O4328       O  0.93824865  0.87784492  0.89262493    -2.31660
O4329       O  0.91125257  0.82373015  0.82784066    -2.27870
O4330       O  0.92154522  0.84401041  0.92879803    -0.72460
H4331       H  0.85575058  0.80752147  0.90199402     0.79540
H4332       H  0.94710356  0.89619928  0.89816544     0.80620
H4333       H  0.94931841  0.80676113  0.90210478     0.82850
H4334       H  0.91007269  0.82116842  0.80793930     0.80460
H4335       H  0.92989847  0.90580692  0.94380989     0.43490
H4336       H  0.96100590  0.88625735  0.95980992     0.42460
H4337       H  0.50397620  0.85166311  0.88987162     0.42140
H4338       H  0.97395390  0.79553014  0.86785715     0.40070
H4339       H  0.89977800  0.76584438  0.80805273     0.43210
H4340       H  0.86521411  0.78654546  0.79027941     0.37990
H4341       H  0.83040230  0.82128288  0.85464847     0.44110
H4342       H  0.84280962  0.84679908  0.90340116     0.40520
H4343       H  0.97047569  0.78680582  0.83619715     0.45440
H4344       H  0.83766187  0.77056277  0.80212341     0.44160
H4345       H  0.85619704  0.87193242  0.92406711     0.44300
H4346       H  0.98876750  0.88878817  0.95971792     0.44660
O4347       O  0.91979677  0.65392937  0.90180596    -0.74210
O4348       O  0.90311153  0.63949475  0.85761680    -0.53120
C4349       C  0.90993667  0.65579012  0.87928894     0.79520
O4350       O  0.98852785  0.58277023  0.89096337    -0.58810
O4351       O  0.97157498  0.56434676  0.93056662    -0.51840
C4352       C  0.98863479  0.57124845  0.91209988     0.71530
O4353       O  0.96928001  0.61970865  0.82625283    -0.73370
O4354       O  0.93231756  0.61998048  0.81306392    -0.53940
C4355       C  0.95587709  0.62440643  0.80936294     0.77530
O4356       O  0.95688658  0.63134958  0.96422225    -0.58520
O4357       O  0.95557452  0.59304003  0.96979413    -0.51640
C4358       C  0.96387289  0.61739668  0.97656751     0.74120
Zr4359     Zr  0.93066740  0.62538845  0.92316208     2.54710
O4360       O  0.96747005  0.66927489  0.92875492    -0.79080
O4361       O  0.90761298  0.63521258  0.95947254    -0.92500
Zr4362     Zr  0.96502964  0.60096207  0.86918556     2.64680
O4363       O  0.00254632  0.64290717  0.88402906    -0.97450
O4364       O  0.99241615  0.59237687  0.83755887    -0.79520
O4365       O  0.94120459  0.62318722  0.87606480    -0.82870
O4366       O  0.95598736  0.60488233  0.91566426    -2.17580
O4367       O  0.85845063  0.52803088  0.94624931    -0.66260
O4368       O  0.89741844  0.53225532  0.95982807    -0.50830
C4369       C  0.87229445  0.52138803  0.96038885     0.72510
O4370       O  0.86530871  0.53203467  0.82724190    -0.59170
O4371       O  0.88251612  0.56831421  0.80634577    -0.51150
C4372       C  0.86925026  0.54340513  0.80532186     0.74310
O4373       O  0.91254651  0.50857710  0.87781983    -0.70570
O4374       O  0.92947846  0.52201053  0.92204747    -0.49240
C4375       C  0.92206263  0.50624773  0.90015625     0.75690
O4376       O  0.83721842  0.56473793  0.88130207    -0.65900
O4377       O  0.85653968  0.58843636  0.84510647    -0.53090
C4378       C  0.83680171  0.57549799  0.85961314     0.74070
Zr4379     Zr  0.86605572  0.55893347  0.91192295     2.77540
O4380       O  0.82153710  0.52283582  0.90736246    -0.96640
O4381       O  0.85299954  0.58082111  0.94764089    -0.77470
Zr4382     Zr  0.89973245  0.53504045  0.85630114     2.70070
O4383       O  0.86797561  0.98919497  0.84773537    -0.78710
O4384       O  0.91838608  0.52672253  0.81466749    -0.97800
Zr4385     Zr  0.90128130  0.59782486  0.84906314     2.21500
Zr4386     Zr  0.92990890  0.56254247  0.93002516     2.11130
O4387       O  0.88999870  0.53715770  0.90309889    -2.46480
O4388       O  0.87526184  0.55589671  0.86471242    -0.78510
O4389       O  0.90525796  0.58390807  0.93948564    -0.70700
O4390       O  0.92606593  0.57630331  0.84143850    -2.31660
O4391       O  0.89098129  0.60074942  0.89677577    -2.27870
O4392       O  0.93923469  0.55898758  0.88261470    -0.72460
H4393       H  0.97276498  0.61423069  0.92539682     0.79540
H4394       H  0.92945078  0.57457363  0.82220555     0.80620
H4395       H  0.88060746  0.51951603  0.90774665     0.82850
H4396       H  0.88055447  0.60911301  0.89898683     0.80460
H4397       H  0.98034577  0.57542419  0.82741792     0.43490
H4398       H  0.92896341  0.51928819  0.82105032     0.42460
H4399       H  0.85465317  0.48626110  0.86148971     0.42140
H4400       H  0.82324273  0.50709071  0.90472924     0.40070
H4401       H  0.85606807  0.57512724  0.96507677     0.43210
H4402       H  0.89225663  0.63406199  0.94989188     0.37990
H4403       H  0.98228684  0.66761484  0.92143952     0.44110
H4404       H  0.01369563  0.63885372  0.89540933     0.40520
H4405       H  0.81442397  0.52239704  0.92585428     0.45440
H4406       H  0.91895174  0.65391200  0.96511623     0.44160
H4407       H  0.51220636  0.64872662  0.86707290     0.44300
H4408       H  0.90342695  0.51204507  0.80397309     0.44660
O4409       O  0.50818280  0.90975803  0.63651381    -0.74210
O4410       O  0.53050448  0.93462878  0.67579667    -0.53120
C4411       C  0.51052555  0.92389817  0.65885230     0.79520
O4412       O  0.57235708  0.83841616  0.62608352    -0.58810
O4413       O  0.58838529  0.85064508  0.58381129    -0.51660
C4414       C  0.58005019  0.83434492  0.60251921     0.71530
O4415       O  0.54184923  0.86922755  0.69440758    -0.73370
O4416       O  0.55053940  0.91004797  0.70984715    -0.53940
C4417       C  0.53947102  0.88554671  0.71151236     0.77530
O4418       O  0.52110650  0.86688716  0.56790509    -0.58520
O4419       O  0.55682227  0.87033750  0.54624112    -0.51640
C4420       C  0.53194946  0.86251260  0.54705340     0.74120
Zr4421     Zr  0.53413060  0.89807807  0.60685674     2.54710
O4422       O  0.98860268  0.86443079  0.60552017    -0.79080
O4423       O  0.52359250  0.92083566  0.57440288    -0.92500
Zr4424     Zr  0.56673567  0.87059027  0.65376057     2.64680
O4425       O  0.52749717  0.82864659  0.65486065    -0.97450
O4426       O  0.59047723  0.86014929  0.68646066    -0.79520
O4427       O  0.54360917  0.89331878  0.65211670    -0.82870
O4428       O  0.55528670  0.87315105  0.60791471    -2.17580
O4429       O  0.61541097  0.96263320  0.55946852    -0.66260
O4430       O  0.61157518  0.92354648  0.54361871    -0.50830
C4431       C  0.61771076  0.94744986  0.54093099     0.72510
O4432       O  0.64458961  0.96625156  0.69017614    -0.59170
O4433       O  0.60666756  0.96213919  0.70683015    -0.51150
C4434       C  0.63156531  0.97188101  0.70802699     0.74310
O4435       O  0.65951747  0.92387953  0.61815213    -0.70570
O4436       O  0.63771782  0.90011465  0.57800298    -0.49240
C4437       C  0.65837101  0.91215059  0.59429028     0.75690
O4438       O  0.59629569  0.99491595  0.63624913    -0.65900
O4439       O  0.57732728  0.97851149  0.67612751    -0.53090
C4440       C  0.58708238  0.99655810  0.65995657     0.74070
Zr4441     Zr  0.60056711  0.96243553  0.60530324     2.77540
O4442       O  0.64380639  0.00051545  0.60770118    -0.96640
O4443       O  0.58110409  0.98130131  0.57770249    -0.77470
Zr4444     Zr  0.63338221  0.93402507  0.65025069     2.70070
O4445       O  0.67798049  0.96945274  0.65007378    -0.78710
O4446       O  0.64655774  0.91233129  0.68146689    -0.97800
Zr4447     Zr  0.57222022  0.93579636  0.67256865     2.21500
Zr4448     Zr  0.59372860  0.89483003  0.58216017     2.11130
O4449       O  0.62209892  0.93765492  0.60469685    -2.46480
O4450       O  0.61198096  0.95865492  0.65006418    -0.78510
O4451       O  0.57244283  0.92028681  0.58249247    -0.70700
O4452       O  0.59518126  0.91239227  0.67554619    -2.31660
O4453       O  0.56118383  0.94037708  0.62742523    -2.27870
O4454       O  0.60508324  0.89194388  0.62870214    -0.72460
H4455       H  0.54428410  0.85564052  0.59977807     0.79540
H4456       H  0.59938348  0.91170956  0.69449924     0.80620
H4457       H  0.63779934  0.94628623  0.59469672     0.82850
H4458       H  0.55228095  0.95030182  0.62769996     0.80460
H4459       H  0.58441569  0.86291589  0.70473636     0.43490
H4460       H  0.64505563  0.89708727  0.67000451     0.42460
H4461       H  0.67692552  0.98166127  0.63827785     0.42140
H4462       H  0.65496806  0.99466831  0.59791040     0.40070
H4463       H  0.57336302  0.96895453  0.56101523     0.43210
H4464       H  0.53135321  0.93889447  0.58283472     0.37990
H4465       H  0.98827810  0.85183264  0.61772321     0.44110
H4466       H  0.52116560  0.82279779  0.63537157     0.40520
H4467       H  0.64224625  0.51211283  0.59538749     0.45440
H4468       H  0.50458455  0.91382542  0.57566294     0.44160
H4469       H  0.53365474  0.81681951  0.66016883     0.44300
H4470       H  0.66554345  0.92398729  0.68480411     0.44660
O4471       O  0.64936868  0.61526761  0.82441890    -0.74210
O4472       O  0.68815075  0.61832506  0.81255055    -0.53120
C4473       C  0.66835141  0.62167197  0.80838327     0.79520
O4474       O  0.67251861  0.63038026  0.96184426    -0.58810
O4475       O  0.63688514  0.59145474  0.96853476    -0.51840
C4476       C  0.65231364  0.61593897  0.97479015     0.71530
O4477       O  0.73073899  0.65660222  0.89843695    -0.73370
O4478       O  0.73568922  0.64085508  0.85583493    -0.53940
C4479       C  0.74290744  0.65860578  0.87618833     0.77530
O4480       O  0.59404558  0.57862320  0.88969324    -0.58520
O4481       O  0.59339229  0.56195133  0.93030759    -0.51640
C4482       C  0.58293133  0.56822062  0.91149472     0.74120
Zr4483     Zr  0.63440118  0.59446302  0.86604347     2.54710
O4484       O  0.63213618  0.63404225  0.87554853    -0.79080
O4485       O  0.59757677  0.57561569  0.83264352    -0.92500
Zr4486     Zr  0.69312764  0.62605039  0.92056428     2.64680
O4487       O  0.69344075  0.66715212  0.92214370    -0.97450
O4488       O  0.72765153  0.64216597  0.95641013    -0.79520
O4489       O  0.68007829  0.62043443  0.87322698    -0.82870
O4490       O  0.64743184  0.60200163  0.91295073    -2.17580
O4491       O  0.60743780  0.50083042  0.88578487    -0.66260
O4492       O  0.59321078  0.52207289  0.91476597    -0.50830
C4493       C  0.58920178  0.50302595  0.89724916     0.72510
O4494       O  0.73111835  0.56681782  0.88320185    -0.59170
O4495       O  0.73476251  0.58928229  0.84605864    -0.51150
C4496       C  0.74184703  0.57681318  0.86097292     0.74310
O4497       O  0.67483358  0.53212891  0.95058646    -0.70570
O4498       O  0.63726035  0.53261840  0.96083079    -0.49240
C4499       C  0.65322224  0.52385090  0.96334582     0.75690
O4500       O  0.67383965  0.53348753  0.82828474    -0.65900
O4501       O  0.68901987  0.56855236  0.80580778    -0.53090
C4502       C  0.67793255  0.54379936  0.80567200     0.74070
Zr4503     Zr  0.64058959  0.53108057  0.85880024     2.77540
O4504       O  0.63682071  0.98809194  0.85559104    -0.96640
O4505       O  0.60686739  0.51728887  0.82224210    -0.77470
Zr4506     Zr  0.69774493  0.56288271  0.91521880     2.70070
O4507       O  0.71176337  0.53112032  0.91933824    -0.78710
O4508       O  0.73188426  0.59059410  0.94997595    -0.97800
Zr4509     Zr  0.69836800  0.59718386  0.84884022     2.21500
Zr4510     Zr  0.63376580  0.56097091  0.92964459     2.11130
O4511       O  0.65248579  0.53762417  0.90611570    -2.46480
O4512       O  0.68579822  0.55669780  0.86734492    -0.78510
O4513       O  0.62180806  0.55400263  0.88182120    -0.70700
O4514       O  0.71183381  0.60326032  0.89701255    -2.31660
O4515       O  0.65223503  0.57124935  0.84140667    -2.27870
O4516       O  0.67969129  0.58611016  0.93948452    -0.72460
H4517       H  0.63906473  0.61082497  0.92202276     0.79540
H4518       H  0.73059530  0.61310831  0.89928090     0.80620
H4519       H  0.64637858  0.52062743  0.91191549     0.82850
H4520       H  0.64729367  0.56877913  0.82205276     0.80460
H4521       H  0.74285941  0.64309382  0.94684590     0.43490
H4522       H  0.72683132  0.58095255  0.96654327     0.42460
H4523       H  0.69977058  0.51610905  0.90641582     0.42140
H4524       H  0.65338572  0.99036270  0.84823742     0.40070
H4525       H  0.61572206  0.52696300  0.80639876     0.43210
H4526       H  0.60312189  0.56837917  0.81667269     0.37990
H4527       H  0.65017225  0.64815732  0.87368918     0.44110
H4528       H  0.67508196  0.66270158  0.92453964     0.40520
H4529       H  0.63774426  0.98428736  0.87481136     0.45440
H4530       H  0.59697485  0.59057370  0.82603991     0.44160
H4531       H  0.70258256  0.67662760  0.93993548     0.44300
H4532       H  0.74739910  0.58968162  0.94371118     0.44660
O4533       O  0.53476942  0.67601451  0.70881058    -0.74210
O4534       O  0.54328994  0.64582790  0.72473008    -0.53120
C4535       C  0.53045375  0.65818851  0.72484074     0.79520
O4536       O  0.52887992  0.64777440  0.58059715    -0.58810
O4537       O  0.56654184  0.68039174  0.56610832    -0.51840
C4538       C  0.54207791  0.66336141  0.56299510     0.71530
O4539       O  0.50788552  0.61162325  0.65932765    -0.73370
O4540       O  0.52843728  0.59837160  0.68681064    -0.53940
C4541       C  0.50842623  0.59401258  0.67203961     0.77530
O4542       O  0.57146983  0.73211163  0.64266295    -0.58520
O4543       O  0.59220826  0.73064558  0.60342972    -0.51640
C4544       C  0.58142259  0.74058318  0.61944244     0.74120
Zr4545     Zr  0.56616383  0.69878552  0.67338406     2.54710
O4546       O  0.53158955  0.70977960  0.67678677    -0.79080
O4547       O  0.59036687  0.73430736  0.70886747    -0.92500
Zr4548     Zr  0.53575402  0.63418711  0.62306773     2.64680
O4549       O  0.99087236  0.62486500  0.61626308    -0.97450
O4550       O  0.52421621  0.59445228  0.59369614    -0.79520
O4551       O  0.54397716  0.65301919  0.66892272    -0.82870
O4552       O  0.55719048  0.68004430  0.62674391    -2.17580
O4553       O  0.65981447  0.73590586  0.64680679    -0.66260
O4554       O  0.64097958  0.73030580  0.60392208    -0.50830
C4555       C  0.65961386  0.74276901  0.62230490     0.72510
O4556       O  0.59845680  0.60211198  0.65289414    -0.59170
O4557       O  0.57482580  0.60025064  0.69060511    -0.51150
C4558       C  0.58691138  0.59180243  0.67446610     0.74310
O4559       O  0.62174727  0.64723470  0.58201052    -0.70570
O4560       O  0.61746957  0.68023689  0.56707430    -0.49240
C4561       C  0.62459582  0.66289263  0.56428903     0.75690
O4562       O  0.64179013  0.67712549  0.71109155    -0.65900
O4563       O  0.60305526  0.64610733  0.72587872    -0.53090
C4564       C  0.62820703  0.65876963  0.72655786     0.74070
Zr4565     Zr  0.63330765  0.70004260  0.67553445     2.77540
O4566       O  0.67874979  0.71062686  0.67865047    -0.96640
O4567       O  0.64332388  0.73427680  0.71234569    -0.77470
Zr4568     Zr  0.60308216  0.63566572  0.62539951     2.70070
O4569       O  0.64540942  0.63812020  0.62817871    -0.78710
O4570       O  0.58330136  0.59549757  0.59510178    -0.97800
Zr4571     Zr  0.57009378  0.63885595  0.69094278     2.21500
Zr4572     Zr  0.59795077  0.69320427  0.60554971     2.11130
O4573       O  0.62575806  0.68148301  0.62889701    -2.46480
O4574       O  0.61132102  0.65423883  0.67113714    -0.78510
O4575       O  0.60662681  0.71272804  0.65232939    -0.70700
O4576       O  0.56187033  0.62015762  0.64437341    -2.31660
O4577       O  0.59255228  0.68558828  0.69695194    -2.27870
O4578       O  0.57589382  0.64729187  0.60182423    -0.72460
H4579       H  0.54678930  0.68575143  0.61742322     0.79540
H4580       H  0.55308533  0.60150493  0.64330125     0.80620
H4581       H  0.64219493  0.68761939  0.62013118     0.82850
H4582       H  0.59507860  0.69167621  0.71631681     0.80460
H4583       H  0.52502003  0.58228029  0.60571547     0.43490
H4584       H  0.57624400  0.59935284  0.57884997     0.42460
H4585       H  0.65517305  0.65177941  0.64337146     0.42140
H4586       H  0.68340297  0.70888400  0.65935764     0.40070
H4587       H  0.64700076  0.74957141  0.70264111     0.43210
H4588       H  0.57834826  0.73060579  0.72417828     0.37990
H4589       H  0.51834535  0.69781439  0.66238575     0.44110
H4590       H  0.99208552  0.64193633  0.61523062     0.40520
H4591       H  0.68866831  0.72943683  0.68444527     0.45440
H4592       H  0.59112003  0.74956767  0.70136606     0.44160
H4593       H  0.98498651  0.61589029  0.59746722     0.44300
H4594       H  0.59820284  0.59374875  0.58822214     0.44660
O4595       O  0.82405175  0.96695898  0.68904147    -0.74210
O4596       O  0.85979157  0.96512730  0.70378716    -0.53120
C4597       C  0.84351232  0.97358037  0.70604428     0.79520
O4598       O  0.76507851  0.84110922  0.62827331    -0.58810
O4599       O  0.76181234  0.85162042  0.58486456    -0.51840
C4600       C  0.75298476  0.83695743  0.60493933     0.71530
O4601       O  0.82568677  0.87231577  0.69659227    -0.73370
O4602       O  0.85984590  0.91276911  0.70781511    -0.53940
C4603       C  0.84531611  0.88899416  0.71236487     0.77530
O4604       O  0.76778525  0.92700697  0.61567927    -0.58520
O4605       O  0.76385897  0.90058406  0.57694803    -0.51640
C4606       C  0.75612325  0.91384031  0.59275240     0.74120
Zr4607     Zr  0.80494912  0.93796160  0.64642431     2.54710
O4608       O  0.76865911  0.92166564  0.67692796    -0.79080
O4609       O  0.80345947  0.97733755  0.64034163    -0.92500
Zr4610     Zr  0.80487205  0.87261613  0.65333203     2.64680
O4611       O  0.77165009  0.86392858  0.68692280    -0.97450
O4612       O  0.80116920  0.83011379  0.65325599    -0.79520
O4613       O  0.81998426  0.91570890  0.67276780    -0.82870
O4614       O  0.78900417  0.89458957  0.62767714    -2.17580
O4615       O  0.84821599  0.95979831  0.55444913    -0.66260
O4616       O  0.81240276  0.92080080  0.54032849    -0.50830
C4617       C  0.83030686  0.94437890  0.53662594     0.72510
O4618       O  0.90410116  0.91142869  0.63224066    -0.59170
O4619       O  0.90519650  0.93400680  0.67294577    -0.51150
C4620       C  0.91519378  0.92450904  0.65533322     0.74310
O4621       O  0.84414155  0.86300286  0.56587440    -0.70570
O4622       O  0.80906556  0.86375922  0.54756738    -0.49240
C4623       C  0.82559233  0.85523153  0.54764593     0.75690
O4624       O  0.90315727  0.99057507  0.62723453    -0.65900
O4625       O  0.90473598  0.97913918  0.67011800    -0.53090
C4626       C  0.91418486  0.99471976  0.65131678     0.74070
Zr4627     Zr  0.86450986  0.95970705  0.59909356     2.77540
O4628       O  0.90101582  0.97249418  0.56899608    -0.96640
O4629       O  0.86487130  0.00066795  0.59858787    -0.77470
Zr4630     Zr  0.86387294  0.89460667  0.60486534     2.70070
O4631       O  0.89634373  0.90850420  0.56989804    -0.78710
O4632       O  0.86994807  0.85830040  0.61379139    -0.97800
Zr4633     Zr  0.86600952  0.93723530  0.66891271     2.21500
Zr4634     Zr  0.80174749  0.89394424  0.58066877     2.11130
O4635       O  0.84832964  0.91646351  0.57896078    -2.46480
O4636       O  0.88068676  0.93789630  0.62336849    -0.78510
O4637       O  0.81844904  0.93783772  0.60045766    -0.70700
O4638       O  0.85059869  0.89357803  0.65047205    -2.31660
O4639       O  0.85075451  0.96035840  0.64427283    -2.27870
O4640       O  0.81791768  0.87223820  0.60714952    -0.72460
H4641       H  0.77026485  0.88599145  0.62830951     0.79540
H4642       H  0.85817980  0.88533332  0.66035380     0.80620
H4643       H  0.85349450  0.91632920  0.56015033     0.82850
H4644       H  0.85808394  0.97811993  0.65201840     0.80460
H4645       H  0.81779309  0.83242060  0.64603807     0.43490
H4646       H  0.85250105  0.84281294  0.61031701     0.42460
H4647       H  0.90792039  0.92722376  0.57520305     0.42140
H4648       H  0.89427614  0.95937039  0.55284161     0.40070
H4649       H  0.84623821  0.99580043  0.59756271     0.43210
H4650       H  0.82143828  0.99160433  0.64497125     0.37990
H4651       H  0.77568026  0.91873236  0.69385692     0.44110
H4652       H  0.75847692  0.86669236  0.67757626     0.40520
H4653       H  0.90334695  0.98852000  0.56184287     0.45440
H4654       H  0.79311689  0.97888103  0.65566248     0.44160
H4655       H  0.76299032  0.84498284  0.68793549     0.44300
H4656       H  0.88032013  0.85687965  0.59843322     0.44660
C4657       C  0.97190835  0.56011400  0.64191263     0.24670
C4658       C  0.98518012  0.56790589  0.66786006    -0.23430
C4659       C  0.97585731  0.55066004  0.68838101     0.19580
C4660       C  0.95280156  0.52667566  0.68330435     0.24620
C4661       C  0.93921557  0.51933578  0.65728939    -0.23380
C4662       C  0.94968343  0.53627971  0.63654863     0.19520
F4663       F  0.93849479  0.53015688  0.61067986    -0.13340
F4664       F  0.98055158  0.57552073  0.62107975    -0.15700
F4665       F  0.94377241  0.51091100  0.70392461    -0.15700
F4666       F  0.98850615  0.55721866  0.71346904    -0.13340
C4667       C  0.69844106  0.76741015  0.59369295     0.24670
C4668       C  0.68213690  0.76723712  0.61495771    -0.23430
C4669       C  0.68728727  0.79083081  0.62917910     0.19580
C4670       C  0.70903011  0.81402307  0.62330720     0.24620
C4671       C  0.72639776  0.81417792  0.60333843    -0.23380
C4672       C  0.72065061  0.79070571  0.58816094     0.19520
F4673       F  0.73746873  0.79005370  0.56950616    -0.13340
F4674       F  0.69371959  0.74483331  0.57946729    -0.15700
F4675       F  0.71412953  0.83635543  0.63841905    -0.15700
F4676       F  0.67145470  0.79134863  0.64918132    -0.13340
C4677       C  0.63095943  0.62328011  0.74787194     0.24670
C4678       C  0.64193838  0.64995190  0.74512990    -0.23430
C4679       C  0.66548698  0.66716804  0.76021449     0.19580
C4680       C  0.67632794  0.65797493  0.77929009     0.24620
C4681       C  0.66440305  0.63134561  0.78269631    -0.23380
C4682       C  0.64220457  0.61417780  0.76595564     0.19520
F4683       F  0.62996156  0.58841109  0.76890334    -0.13340
F4684       F  0.60865139  0.60574134  0.73360523    -0.15700
F4685       F  0.69728281  0.67518687  0.79575320    -0.15700
F4686       F  0.67696087  0.69298257  0.75798181    -0.13340
C4687       C  0.66247930  0.64021199  0.52104534     0.24670
C4688       C  0.64603142  0.62949731  0.99730736    -0.23430
C4689       C  0.62590462  0.63522126  0.99340714     0.19580
C4690       C  0.62096553  0.64980399  0.51414449     0.24620
C4691       C  0.63597352  0.65856017  0.53899548    -0.23380
C4692       C  0.65742902  0.65453136  0.54181458     0.19520
F4693       F  0.67224355  0.66279068  0.56571054    -0.13340
F4694       F  0.68279761  0.63592016  0.52453480    -0.15700
F4695       F  0.60036778  0.65363012  0.51084856    -0.15700
F4696       F  0.61099991  0.62655074  0.96958231    -0.13340
C4697       C  0.65418999  0.97749518  0.51314253     0.24670
C4698       C  0.62739858  0.95987285  0.51495890    -0.23430
C4699       C  0.60967233  0.96240319  0.49805580     0.19580
C4700       C  0.61819790  0.98277456  0.98112278     0.24620
C4701       C  0.64488029  0.50135829  0.98040876    -0.23380
C4702       C  0.66287624  0.99773116  0.99574853     0.19520
F4703       F  0.68875505  0.51483189  0.99548466    -0.13340
F4704       F  0.67183039  0.97644573  0.53003309    -0.15700
F4705       F  0.60006799  0.98461806  0.96585802    -0.15700
F4706       F  0.58367731  0.94647748  0.49994454    -0.13340
C4707       C  0.63445997  0.98413873  0.75791577     0.24670
C4708       C  0.64554057  0.99024710  0.73236963    -0.23430
C4709       C  0.66833762  0.51426443  0.73060890     0.19580
C4710       C  0.67926541  0.53217344  0.75422902     0.24620
C4711       C  0.66780941  0.52591320  0.77986988    -0.23380
C4712       C  0.64542347  0.50149400  0.78114856     0.19520
F4713       F  0.63313530  0.49434482  0.80485248    -0.13340
F4714       F  0.61264035  0.96109335  0.76050189    -0.15700
F4715       F  0.70099380  0.55531270  0.75208745    -0.15700
F4716       F  0.67939505  0.02071616  0.70598827    -0.13340
C4717       C  0.56373699  0.54434599  0.67875421     0.24670
C4718       C  0.58722190  0.56792320  0.67928206    -0.23430
C4719       C  0.61084785  0.56764497  0.67691046     0.19580
C4720       C  0.61086149  0.54426857  0.67161504     0.24620
C4721       C  0.58729432  0.52081851  0.66902473    -0.23380
C4722       C  0.56379552  0.52085921  0.67378728     0.19520
F4723       F  0.54076963  0.99829024  0.67133066    -0.13340
F4724       F  0.54064188  0.54409891  0.68018887    -0.15700
F4725       F  0.63380876  0.54453751  0.66806763    -0.15700
F4726       F  0.63381892  0.59021438  0.67783198    -0.13340
C4727       C  0.55646803  0.78687008  0.60678555     0.24670
C4728       C  0.57888031  0.80866958  0.59854047    -0.23430
C4729       C  0.60148105  0.80675147  0.59442422     0.19580
C4730       C  0.60207114  0.78419443  0.60003284     0.24620
C4731       C  0.58021213  0.76334017  0.61048659    -0.23380
C4732       C  0.55720661  0.76469344  0.61297289     0.19520
F4733       F  0.53545501  0.74465863  0.62196441    -0.13340
F4734       F  0.53409740  0.78771240  0.61055468    -0.15700
F4735       F  0.62464141  0.78356047  0.59724811    -0.15700
F4736       F  0.62364517  0.82748107  0.58740502    -0.13340
C4737       C  0.70676898  0.93655100  0.59313413     0.24670
C4738       C  0.68330034  0.91340780  0.58607681    -0.23430
C4739       C  0.68462707  0.89130824  0.57569742     0.19580
C4740       C  0.70872964  0.89165192  0.57553600     0.24620
C4741       C  0.73183267  0.91426070  0.58536940    -0.23380
C4742       C  0.73062748  0.93699939  0.59269805     0.19520
F4743       F  0.75256987  0.95955434  0.60105221    -0.13340
F4744       F  0.70650720  0.95865536  0.60194460    -0.15700
F4745       F  0.70910581  0.86938530  0.56807793    -0.15700
F4746       F  0.66250077  0.86890758  0.56779164    -0.13340
C4747       C  0.97395761  0.92404238  0.68558625     0.24670
C4748       C  0.98936756  0.92986590  0.66242834    -0.23430
C4749       C  0.98211334  0.93799734  0.63945586     0.19580
C4750       C  0.95863363  0.93782641  0.63832503     0.24620
C4751       C  0.94193578  0.92979369  0.66027799    -0.23380
C4752       C  0.95017067  0.92410285  0.68454522     0.19520
F4753       F  0.93436411  0.91658789  0.70610838    -0.13340
F4754       F  0.98083323  0.91637382  0.70804467    -0.15700
F4755       F  0.95147096  0.94410818  0.61494548    -0.15700
F4756       F  0.99709011  0.94445868  0.61712014    -0.13340
C4757       C  0.52879337  0.64377847  0.51509523     0.24670
C4758       C  0.52690917  0.65920446  0.53736895    -0.23430
C4759       C  0.00449729  0.66184378  0.53885335     0.19580
C4760       C  0.98384539  0.64828227  0.51913187     0.24620
C4761       C  0.98502438  0.63134335  0.99803827    -0.23380
C4762       C  0.50810949  0.63011806  0.99552084     0.19520
F4763       F  0.51065632  0.61576485  0.97391143    -0.13340
F4764       F  0.54965579  0.64004856  0.51369456    -0.15700
F4765       F  0.96221129  0.65070593  0.52140086    -0.15700
F4766       F  0.00184415  0.67601563  0.56065841    -0.13340
C4767       C  0.98192034  0.65878376  0.77735457     0.24670
C4768       C  0.96877729  0.63268756  0.78304423    -0.23430
C4769       C  0.97437869  0.61513686  0.76764908     0.19580
C4770       C  0.49387611  0.62355915  0.74856245     0.24620
C4771       C  0.50828264  0.64986007  0.74379775    -0.23380
C4772       C  0.00125648  0.66725325  0.75750157     0.19520
F4773       F  0.01424235  0.69267384  0.75310099    -0.13340
F4774       F  0.97735973  0.67631120  0.79228727    -0.15700
F4775       F  0.49913336  0.60584457  0.73523782    -0.15700
F4776       F  0.96228292  0.58986936  0.77281775    -0.13340
C4777       C  0.86664019  0.98037601  0.47813619     0.24670
C4778       C  0.85816121  0.49865476  0.97706777    -0.23430
C4779       C  0.83565228  0.99427591  0.99122027     0.19580
C4780       C  0.82353811  0.97359908  0.50796797     0.24620
C4781       C  0.83301877  0.95623397  0.51028186    -0.23380
C4782       C  0.85415242  0.95944738  0.49430069     0.19520
F4783       F  0.86448289  0.94373249  0.49663344    -0.13340
F4784       F  0.88752453  0.48305709  0.46397219    -0.15700
F4785       F  0.80405739  0.97200045  0.52399920    -0.15700
F4786       F  0.82648728  0.51111158  0.99050718    -0.13340
C4787       C  0.84327322  0.99926648  0.77930876     0.24670
C4788       C  0.85912818  0.52642315  0.77872514    -0.23430
C4789       C  0.86776840  0.53601377  0.75299334     0.19580
C4790       C  0.86183432  0.51885617  0.72896473     0.24620
C4791       C  0.84735315  0.99192181  0.73027616    -0.23380
C4792       C  0.83786349  0.98235910  0.75548656     0.19520
F4793       F  0.82395708  0.95641504  0.75721929    -0.13340
F4794       F  0.83358673  0.98868929  0.80316922    -0.15700
F4795       F  0.87114743  0.52847499  0.70460627    -0.15700
F4796       F  0.88295846  0.56181200  0.75120254    -0.13340
C4797       C  0.54045518  0.55614067  0.88956791     0.24670
C4798       C  0.55609070  0.56311057  0.91388635    -0.23430
C4799       C  0.54680573  0.56797050  0.93899500     0.19580
C4800       C  0.52338360  0.56859657  0.93911518     0.24620
C4801       C  0.50973046  0.56510230  0.91405175    -0.23380
C4802       C  0.51771325  0.55747188  0.88958015     0.19520
F4803       F  0.50378937  0.55196089  0.86537811    -0.13340
F4804       F  0.54788238  0.54922380  0.86536588    -0.15700
F4805       F  0.51506043  0.57421012  0.96332140    -0.15700
F4806       F  0.56120799  0.57396495  0.96290811    -0.13340
C4807       C  0.78687899  0.59490624  0.84364352     0.24670
C4808       C  0.76446813  0.57405663  0.85299094    -0.23430
C4809       C  0.76511816  0.55164481  0.85853205     0.19580
C4810       C  0.78846861  0.55125172  0.85797318     0.24620
C4811       C  0.81163624  0.57335494  0.85210225    -0.23380
C4812       C  0.81045217  0.59465176  0.84337394     0.19520
F4813       F  0.83244161  0.61616625  0.83723299    -0.13340
F4814       F  0.78658648  0.61644972  0.83725143    -0.15700
F4815       F  0.78870571  0.52975362  0.86480846    -0.15700
F4816       F  0.74337117  0.53056127  0.86595163    -0.13340
C4817       C  0.97389909  0.84706384  0.00173923     0.24670
C4818       C  0.96824503  0.82422937  0.98553686    -0.23430
C4819       C  0.98498186  0.81381536  0.98872540     0.19580
C4820       C  0.50661214  0.82603678  0.50810817     0.24620
C4821       C  0.51297148  0.84997041  0.52279705    -0.23380
C4822       C  0.49646247  0.86034312  0.51858589     0.19520
F4823       F  0.50234281  0.88393812  0.53097665    -0.13340
F4824       F  0.95900495  0.85833631  0.99872041    -0.15700
F4825       F  0.52112033  0.81461819  0.51238188    -0.15700
F4826       F  0.98076270  0.79230346  0.97258557    -0.13340
C4827       C  0.99470572  0.86581484  0.72821375     0.24670
C4828       C  0.52138691  0.87526418  0.73367365    -0.23430
C4829       C  0.53052743  0.87609996  0.76047801     0.19580
C4830       C  0.51306878  0.86754339  0.78171029     0.24620
C4831       C  0.98644779  0.85858986  0.77635218    -0.23380
C4832       C  0.97734820  0.85774630  0.74950743     0.19520
F4833       F  0.95168453  0.84915320  0.74399935    -0.13340
F4834       F  0.98562708  0.86503411  0.70236085    -0.15700
F4835       F  0.52222244  0.86891593  0.80769090    -0.15700
F4836       F  0.55632698  0.88554851  0.76608622    -0.13340
C4837       C  0.89707798  0.93797029  0.88174477     0.24670
C4838       C  0.91982295  0.93766227  0.87400796    -0.23430
C4839       C  0.94418316  0.96012425  0.87841813     0.19580
C4840       C  0.94568011  0.98275924  0.89082054     0.24620
C4841       C  0.92291495  0.98266168  0.89917927    -0.23380
C4842       C  0.89871647  0.96009826  0.89502750     0.19520
F4843       F  0.87644743  0.96025268  0.90184328    -0.13340
F4844       F  0.87336065  0.91627247  0.87761119    -0.15700
F4845       F  0.96896514  0.50496605  0.89349445    -0.15700
F4846       F  0.96637397  0.95979818  0.87179504    -0.13340
C4847       C  0.90553136  0.71227245  0.85592836     0.24670
C4848       C  0.90550535  0.72532481  0.88152982    -0.23430
C4849       C  0.90371038  0.71363063  0.90579746     0.19580
C4850       C  0.90381974  0.69033548  0.90473211     0.24620
C4851       C  0.90609798  0.67837815  0.87937964    -0.23380
C4852       C  0.90595430  0.68905406  0.85489976     0.19520
F4853       F  0.90748686  0.67778016  0.83008125    -0.13340
F4854       F  0.90571564  0.72220534  0.83180530    -0.15700
F4855       F  0.90222160  0.67980523  0.92879576    -0.15700
F4856       F  0.90318439  0.72527502  0.93080511    -0.13340
C4857       C  0.53369252  0.94612735  0.85671101     0.24670
C4858       C  0.51361530  0.94058671  0.87458491    -0.23430
C4859       C  0.51723564  0.95720233  0.89838518     0.19580
C4860       C  0.54169293  0.97836038  0.90551754     0.24620
C4861       C  0.56267657  0.98261423  0.88901037    -0.23380
C4862       C  0.55817938  0.96698014  0.86384684     0.19520
F4863       F  0.57762623  0.97103437  0.84656162    -0.13340
F4864       F  0.53024844  0.92988253  0.83382037    -0.15700
F4865       F  0.54511469  0.99345399  0.92935179    -0.15700
F4866       F  0.49748126  0.95172074  0.91569052    -0.13340
C4867       C  0.81405074  0.70612206  0.86948229     0.24670
C4868       C  0.81582177  0.72838284  0.88379586    -0.23430
C4869       C  0.79342936  0.72827341  0.89327422     0.19580
C4870       C  0.76938829  0.70584479  0.88916762     0.24620
C4871       C  0.76743243  0.68309325  0.87553844    -0.23380
C4872       C  0.78991278  0.68347896  0.86542221     0.19520
F4873       F  0.78866918  0.66182238  0.85253056    -0.13340
F4874       F  0.83563037  0.70648178  0.85925429    -0.15700
F4875       F  0.74794480  0.70636384  0.89853132    -0.15700
F4876       F  0.79483952  0.75015164  0.90594968    -0.13340
C4877       C  0.82557466  0.82539673  0.97565031     0.24670
C4878       C  0.84333773  0.81629933  0.97992815    -0.23430
C4879       C  0.84843923  0.81334078  0.50701164     0.19580
C4880       C  0.83928187  0.82285201  0.52925572     0.24620
C4881       C  0.82561496  0.83645261  0.52492455    -0.23380
C4882       C  0.81720064  0.83577279  0.99781948     0.19520
F4883       F  0.80325614  0.84755614  0.99242726    -0.13340
F4884       F  0.81871649  0.82702417  0.94962320    -0.15700
F4885       F  0.84582457  0.82070397  0.55520226    -0.15700
F4886       F  0.86471557  0.80405137  0.51214837    -0.13340
C4887       C  0.83707682  0.85554468  0.74549187     0.24670
C4888       C  0.85325948  0.88007964  0.73625174    -0.23430
C4889       C  0.87855517  0.89538777  0.74848199     0.19580
C4890       C  0.88761093  0.88635847  0.76875819     0.24620
C4891       C  0.87169991  0.86167284  0.77781702    -0.23380
C4892       C  0.84615706  0.84647533  0.76609997     0.19520
F4893       F  0.82997423  0.82264785  0.77418254    -0.13340
F4894       F  0.81248515  0.84015017  0.73452749    -0.15700
F4895       F  0.91228349  0.90218119  0.77936564    -0.15700
F4896       F  0.89526550  0.91906501  0.74034919    -0.13340
loop_ 
_geom_bond_atom_site_label_1 
_geom_bond_atom_site_label_2 
_geom_bond_distance 
_geom_bond_site_symmetry_2 
_ccdc_geom_bond_type 
O1          Zr13   2.451       .  S
O1            C3   1.289       .  A
O2          Zr39   2.398       .  S
O2            C3   1.282       .  A
C3          C607   1.489       .  S
O4          Zr16   2.375       .  S
O4            C6   1.274       .  A
O5          Zr40   2.523       .  S
O5            C6   1.304       .  A
C6          C594   1.498       .  S
O7          Zr16   2.365       .  S
O7            C9   1.275       .  A
O8          Zr39   2.411       .  S
O8            C9   1.282       .  A
C9          C554   1.437       .  S
O10         Zr13   2.410       .  S
O10          C12   1.282       .  A
O11         Zr40   2.428       .  S
O11          C12   1.289       .  A
C12         C584   1.449       .  S
Zr13         O14   2.434       .  S
Zr13         O15   2.436       .  S
Zr13         O19   2.351       .  S
Zr13         O20   2.378       .  S
Zr13         O43   2.362       .  S
Zr13         O45   2.367       .  S
O14          H57   0.990       .  S
O15          H56   0.990       .  S
O15          H60   0.990       .  S
Zr16         O17   2.436       .  S
Zr16         O18   2.435       .  S
Zr16         O20   2.346       .  S
Zr16         O19   2.359       .  S
Zr16         O44   2.344       .  S
Zr16         O46   2.369       .  S
O17          H58   0.990       .  S
O17          H61   0.990       .  S
O18          H51   0.990       .  S
O19         Zr39   2.374       .  S
O20         Zr40   2.394       .  S
O20          H47   0.966       .  S
O21         Zr33   2.409       .  S
O21          C23   1.283       .  A
O22         Zr40   2.424       .  S
O22          C23   1.290       .  A
C23         C564   1.471       .  S
O24         Zr36   2.401       .  S
O24          C26   1.280       .  A
O25         Zr39   2.400       .  S
O25          C26   1.281       .  A
C26        C3022   1.438       .  S
O27         Zr36   2.380       .  S
O27          C29   1.275       .  A
O28         Zr40   2.516       .  S
O28          C29   1.304       .  A
C29         C534   1.481       .  S
O30         Zr33   2.444       .  S
O30          C32   1.288       .  A
O31         Zr39   2.417       .  S
O31          C32   1.285       .  A
C32         C547   1.467       .  S
Zr33         O34   2.436       .  S
Zr33         O35   2.434       .  S
Zr33         O41   2.374       .  S
Zr33         O42   2.357       .  S
Zr33         O45   2.365       .  S
Zr33         O43   2.363       .  S
O34          H54   0.990       .  S
O34          H59   0.990       .  S
O35          H55   0.990       .  S
Zr36         O37   2.433       .  S
Zr36         O38   2.436       .  S
Zr36         O42   2.356       .  S
Zr36         O41   2.361       .  S
Zr36         O46   2.382       .  S
Zr36         O44   2.345       .  S
O37        H2501   0.990       .  S
O38          H52   0.989       .  S
O38          H62   0.990       .  S
Zr39         O42   2.374       .  S
Zr39         O44   2.374       .  S
Zr39         O45   2.377       .  S
Zr40         O41   2.401       .  S
Zr40         O43   2.407       .  S
Zr40         O46   2.372       .  S
O41          H49   0.965       .  S
O44          H48   0.965       .  S
O45          H50   0.966       .  S
H53        O2485   0.990       .  S
O63         Zr75   2.402       .  S
O63          C65   1.282       .  A
O64        Zr101   2.433       .  S
O64          C65   1.290       .  A
C65         C567   1.471       .  S
O66         Zr78   2.432       .  S
O66          C68   1.288       .  A
O67        Zr102   2.409       .  S
O67          C68   1.282       .  A
C68        C2965   1.467       .  S
O69         Zr78   2.410       .  S
O69          C71   1.282       .  A
O70        Zr101   2.485       .  S
O70          C71   1.297       .  A
C71         C484   1.484       .  S
O72         Zr75   2.424       .  S
O72          C74   1.284       .  A
O73        Zr102   2.461       .  S
O73          C74   1.295       .  A
C74         C477   1.477       .  S
Zr75         O76   2.434       .  S
Zr75         O77   2.434       .  S
Zr75         O81   2.386       .  S
Zr75         O82   2.363       .  S
Zr75        O105   2.382       .  S
Zr75        O107   2.367       .  S
O76         H119   0.990       .  S
O77         H118   0.990       .  S
O77         H122   0.990       .  S
Zr78         O79   2.435       .  S
Zr78         O80   2.434       .  S
Zr78         O82   2.345       .  S
Zr78         O81   2.368       .  S
Zr78        O106   2.372       .  S
Zr78        O108   2.352       .  S
O79         H120   0.990       .  S
O79        H2571   0.990       .  S
O80         H113   0.990       .  S
O81        Zr101   2.395       .  S
O82        Zr102   2.388       .  S
O82         H109   0.964       .  S
O83         Zr95   2.470       .  S
O83          C85   1.291       .  A
O84        Zr102   2.464       .  S
O84          C85   1.295       .  A
C85         C494   1.505   1_545  S
O86         Zr98   2.404       .  S
O86          C88   1.273       .  A
O87        Zr101   2.475       .  S
O87          C88   1.290       .  A
C88         C504   1.499       .  S
O89         Zr98   2.371       .  S
O89          C91   1.275       .  A
O90        Zr102   2.403       .  S
O90          C91   1.280       .  A
C91        C1781   1.429   1_545  S
O92         Zr95   2.434       .  S
O92          C94   1.289       .  A
O93        Zr101   2.420       .  S
O93          C94   1.287       .  A
C94         C527   1.472       .  S
Zr95         O96   2.437       .  S
Zr95         O97   2.434       .  S
Zr95        O103   2.362       .  S
Zr95        O104   2.375       .  S
Zr95        O107   2.371       .  S
Zr95        O105   2.378       .  S
O96         H116   0.990       .  S
O96         H121   0.990       .  S
O97         H117   0.990       .  S
Zr98        O100   2.436       .  S
Zr98       O1323   2.434   1_545  S
Zr98        O104   2.341       .  S
Zr98        O103   2.359       .  S
Zr98        O108   2.355       .  S
Zr98        O106   2.351       .  S
O99       Zr1322   2.434       .  S
O99        H1339   0.990       .  S
O100        H114   0.990       .  S
O100        H124   0.990       .  S
Zr101       O104   2.393       .  S
Zr101       O106   2.386       .  S
Zr101       O107   2.416       .  S
Zr102       O103   2.393       .  S
Zr102       O105   2.383       .  S
Zr102       O108   2.390       .  S
O103        H111   0.965       .  S
O106        H110   0.965       .  S
O107        H112   0.966       .  S
H115       O1323   0.990       .  S
H123       O2527   0.990       .  S
O125       Zr137   2.406       .  S
O125        C127   1.282       .  A
O126       Zr163   2.435       .  S
O126        C127   1.286       .  A
C127       C2912   1.464   1_455  S
O128       Zr140   2.407       .  S
O128        C130   1.282       .  A
O129       Zr164   2.503       .  S
O129        C130   1.302       .  A
C130        C444   1.494       .  S
O131       Zr140   2.447       .  S
O131        C133   1.287       .  A
O132       Zr163   2.414       .  S
O132        C133   1.284       .  A
C133        C544   1.465       .  S
O134       Zr137   2.377       .  S
O134        C136   1.276       .  A
O135       Zr164   2.528       .  S
O135        C136   1.305       .  A
C136        C537   1.497       .  S
Zr137       O139   2.435       .  S
Zr137      O2586   2.434   1_455  S
Zr137       O143   2.351       .  S
Zr137       O144   2.369       .  S
Zr137       O167   2.363       .  S
Zr137       O169   2.351       .  S
O138      Zr2585   2.434       .  S
O138        H181   0.990       .  S
O139        H180   0.989       .  S
O139        H184   0.990       .  S
Zr140       O141   2.437       .  S
Zr140       O142   2.435       .  S
Zr140       O144   2.374       .  S
Zr140       O143   2.356       .  S
Zr140       O168   2.365       .  S
Zr140       O170   2.377       .  S
O141        H182   0.990       .  S
O141        H185   0.990       .  S
O142        H175   0.990       .  S
O143       Zr163   2.372       .  S
O144       Zr164   2.402       .  S
O144        H171   0.965       .  S
O145       Zr157   2.396       .  S
O145        C147   1.279       .  A
O146       Zr164   2.516       .  S
O146        C147   1.305       .  A
C147        C414   1.489       .  S
O148       Zr160   2.456       .  S
O148        C150   1.289       .  A
O149       Zr163   2.411       .  S
O149        C150   1.287       .  A
C150        C424   1.477       .  S
O151       Zr160   2.438       .  S
O151        C153   1.289       .  A
O152       Zr164   2.467       .  S
O152        C153   1.295       .  A
C153        C454   1.492       .  S
O154       Zr157   2.464       .  S
O154        C156   1.293       .  A
O155       Zr163   2.404       .  S
O155        C156   1.282       .  A
C156       C1661   1.470       .  S
Zr157       O158   2.436       .  S
Zr157       O159   2.436       .  S
Zr157       O165   2.375       .  S
Zr157       O166   2.346       .  S
Zr157       O169   2.349       .  S
Zr157       O167   2.394       .  S
O158        H178   0.990       .  S
O158       H1407   0.990       .  S
O159        H179   0.990       .  S
Zr160       O161   2.433       .  S
Zr160       O162   2.434       .  S
Zr160       O166   2.363       .  S
Zr160       O165   2.377       .  S
Zr160       O170   2.371       .  S
Zr160       O168   2.380       .  S
O161        H177   0.990       .  S
O162        H176   0.990       .  S
O162        H186   0.990       .  S
Zr163       O166   2.380       .  S
Zr163       O168   2.389       .  S
Zr163       O169   2.371       .  S
Zr164       O165   2.419       .  S
Zr164       O167   2.400       .  S
Zr164       O170   2.410       .  S
O165        H173   0.966       .  S
O168        H172   0.966       .  S
O169        H174   0.965       .  S
H183       O1382   0.990       .  S
O187       Zr199   2.403       .  S
O187        C189   1.280       .  A
O188       Zr225   2.493       .  S
O188        C189   1.298       .  A
C189        C397   1.487       .  S
O190       Zr202   2.409       .  S
O190        C192   1.281       .  A
O191       Zr226   2.453       .  S
O191        C192   1.292       .  A
C192        C404   1.462       .  S
O193       Zr202   2.398       .  S
O193        C195   1.281       .  A
O194       Zr225   2.440       .  S
O194        C195   1.290       .  A
C195        C587   1.468       .  S
O196       Zr199   2.420       .  S
O196        C198   1.285       .  A
O197       Zr226   2.413       .  S
O197        C198   1.284       .  A
C198        C514   1.465       .  S
Zr199       O200   2.434       .  S
Zr199       O201   2.437       .  S
Zr199       O205   2.365       .  S
Zr199       O206   2.348       .  S
Zr199       O229   2.348       .  S
Zr199       O231   2.369       .  S
O200        H243   0.990       .  S
O201        H242   0.990       .  S
O201        H246   0.990       .  S
Zr202       O203   2.436       .  S
Zr202       O204   2.435       .  S
Zr202       O206   2.361       .  S
Zr202       O205   2.377       .  S
Zr202       O230   2.365       .  S
Zr202       O232   2.379       .  S
O203        H244   0.990       .  S
O203        H247   0.990       .  S
O204        H237   0.990       .  S
O205       Zr225   2.385       .  S
O206       Zr226   2.385       .  S
O206        H233   0.965       .  S
O207       Zr219   2.394       .  S
O207        C209   1.270       .  A
O208       Zr226   2.427       .  S
O208        C209   1.283       .  A
C209       C1801   1.462   1_545  S
O210       Zr222   2.442       .  S
O210        C212   1.290       .  A
O211       Zr225   2.417       .  S
O211        C212   1.287       .  A
C212        C524   1.471       .  S
O213       Zr222   2.500       .  S
O213        C215   1.299       .  A
O214       Zr226   2.448       .  S
O214        C215   1.294       .  A
C215        C417   1.507       .  S
O216       Zr219   2.415       .  S
O216        C218   1.272       .  A
O217       Zr225   2.467       .  S
O217        C218   1.286       .  A
C218        C427   1.491       .  S
Zr219       O221   2.443       .  S
Zr219      O1444   2.452   1_545  S
Zr219       O227   2.355       .  S
Zr219       O228   2.348       .  S
Zr219       O231   2.377       .  S
Zr219       O229   2.363       .  S
O220      Zr1443   2.452       .  S
O220        H240   0.990       .  S
O220        H245   0.990       .  S
O221        H241   0.990       .  S
Zr222       O223   2.433       .  S
Zr222       O224   2.433       .  S
Zr222       O228   2.383       .  S
Zr222       O227   2.352       .  S
Zr222       O232   2.371       .  S
Zr222       O230   2.380       .  S
O223        H239   0.990       .  S
O224        H238   0.990       .  S
O224        H248   0.990       .  S
Zr225       O228   2.407       .  S
Zr225       O230   2.419       .  S
Zr225       O231   2.388       .  S
Zr226       O227   2.390       .  S
Zr226       O229   2.378       .  S
Zr226       O232   2.389       .  S
O227        H235   0.962       .  S
O230        H234   0.966       .  S
O231        H236   0.965       .  S
O249       Zr261   2.483       .  S
O249        C251   1.296       .  A
O250       Zr287   2.431       .  S
O250        C251   1.291       .  A
C251        C487   1.499       .  S
O252       Zr264   2.391       .  S
O252        C254   1.275       .  A
O253       Zr288   2.467       .  S
O253        C254   1.293       .  A
C254        C474   1.469       .  S
O255       Zr264   2.419       .  S
O255        C257   1.277       .  A
O256       Zr287   2.447       .  S
O256        C257   1.285       .  A
C257       C2822   1.480   1_455  S
O258       Zr261   2.486       .  S
O258        C260   1.297       .  A
O259       Zr288   2.428       .  S
O259        C260   1.287       .  A
C260        C447   1.494       .  S
Zr261       O262   2.434       .  S
Zr261       O263   2.434       .  S
Zr261       O267   2.364       .  S
Zr261       O268   2.384       .  S
Zr261       O291   2.373       .  S
Zr261       O293   2.395       .  S
O262        H305   0.990       .  S
O263        H304   0.990       .  S
O263        H308   0.990       .  S
Zr264       O266   2.442       .  S
Zr264      O2713   2.442   1_455  S
Zr264       O268   2.371       .  S
Zr264       O267   2.352       .  S
Zr264       O292   2.362       .  S
Zr264       O294   2.367       .  S
O265      Zr2712   2.442       .  S
O265        H306   0.990       .  S
O265        H309   0.990       .  S
O266        H299   0.989       .  S
O267       Zr287   2.385       .  S
O268       Zr288   2.396       .  S
O268        H295   0.966       .  S
O269       Zr281   2.487       .  S
O269        C271   1.297       .  A
O270       Zr288   2.418       .  S
O270        C271   1.285       .  A
C271        C384   1.484       .  S
O272       Zr284   2.406       .  S
O272        C274   1.281       .  A
O273       Zr287   2.450       .  S
O273        C274   1.291       .  A
C274        C434   1.472       .  S
O275       Zr284   2.377       .  S
O275        C277   1.276       .  A
O276       Zr288   2.462       .  S
O276        C277   1.292       .  A
C277        C407   1.466       .  S
O278       Zr281   2.490       .  S
O278        C280   1.297       .  A
O279       Zr287   2.436       .  S
O279        C280   1.292       .  A
C280        C394   1.502       .  S
Zr281       O282   2.437       .  S
Zr281       O283   2.435       .  S
Zr281       O289   2.383       .  S
Zr281       O290   2.366       .  S
Zr281       O293   2.392       .  S
Zr281       O291   2.379       .  S
O282        H302   0.990       .  S
O282        H307   0.990       .  S
O283        H303   0.990       .  S
Zr284       O285   2.434       .  S
Zr284       O286   2.435       .  S
Zr284       O290   2.342       .  S
Zr284       O289   2.367       .  S
Zr284       O294   2.370       .  S
Zr284       O292   2.356       .  S
O285        H301   0.990       .  S
O286        H300   0.990       .  S
O286        H310   0.990       .  S
Zr287       O290   2.375       .  S
Zr287       O292   2.381       .  S
Zr287       O293   2.415       .  S
Zr288       O289   2.398       .  S
Zr288       O291   2.404       .  S
Zr288       O294   2.372       .  S
O289        H297   0.966       .  S
O292        H296   0.965       .  S
O293        H298   0.966       .  S
O311       Zr323   2.460       .  S
O311        C313   1.290       .  A
O312       Zr349   2.430       .  S
O312        C313   1.287       .  A
C313        C507   1.476       .  S
O314       Zr326   2.411       .  S
O314        C316   1.283       .  A
O315       Zr350   2.489       .  S
O315        C316   1.299       .  A
C316        C387   1.482       .  S
O317       Zr326   2.448       .  S
O317        C319   1.289       .  A
O318       Zr349   2.408       .  S
O318        C319   1.284       .  A
C319        C604   1.487       .  S
O320       Zr323   2.434       .  S
O320        C322   1.289       .  A
O321       Zr350   2.466       .  S
O321        C322   1.295       .  A
C322        C457   1.492       .  S
Zr323       O324   2.434       .  S
Zr323       O325   2.435       .  S
Zr323       O329   2.377       .  S
Zr323       O330   2.369       .  S
Zr323       O353   2.377       .  S
Zr323       O355   2.361       .  S
O324        H367   0.990       .  S
O325        H366   0.990       .  S
O325        H370   0.990       .  S
Zr326       O327   2.434       .  S
Zr326       O328   2.434       .  S
Zr326       O330   2.377       .  S
Zr326       O329   2.372       .  S
Zr326       O354   2.361       .  S
Zr326       O356   2.379       .  S
O327        H368   0.990       .  S
O327        H371   0.990       .  S
O328        H361   0.990       .  S
O329       Zr349   2.381       .  S
O330       Zr350   2.413       .  S
O330        H357   0.965       .  S
O331       Zr343   2.382       .  S
O331        C333   1.276       .  A
O332       Zr350   2.523       .  S
O332        C333   1.306       .  A
C333        C497   1.488       .  S
O334       Zr346   2.422       .  S
O334        C336   1.286       .  A
O335       Zr349   2.424       .  S
O335        C336   1.285       .  A
C336        C467   1.466       .  S
O337       Zr346   2.399       .  S
O337        C339   1.280       .  A
O338       Zr350   2.509       .  S
O338        C339   1.304       .  A
C339        C597   1.507       .  S
O340       Zr343   2.434       .  S
O340        C342   1.288       .  A
O341       Zr349   2.413       .  S
O341        C342   1.283       .  A
C342       C1601   1.489       .  S
Zr343       O344   2.436       .  S
Zr343       O345   2.434       .  S
Zr343       O351   2.381       .  S
Zr343       O352   2.344       .  S
Zr343       O355   2.349       .  S
Zr343       O353   2.371       .  S
O344        H364   0.990       .  S
O344        H369   0.990       .  S
O345        H365   0.990       .  S
Zr346       O347   2.435       .  S
Zr346       O348   2.435       .  S
Zr346       O352   2.355       .  S
Zr346       O351   2.366       .  S
Zr346       O356   2.369       .  S
Zr346       O354   2.351       .  S
O347        H363   0.990       .  S
O348        H362   0.990       .  S
O348        H372   0.990       .  S
Zr349       O352   2.377       .  S
Zr349       O354   2.384       .  S
Zr349       O355   2.380       .  S
Zr350       O351   2.399       .  S
Zr350       O353   2.405       .  S
Zr350       O356   2.400       .  S
O351        H359   0.966       .  S
O354        H358   0.965       .  S
O355        H360   0.966       .  S
C373        C374   1.405       .  A
C373        C378   1.383       .  A
C373        F380   1.353       .  S
C374       C2705   1.480       .  S
C374        C375   1.406       .  A
C375        C376   1.408       .  A
C375        F382   1.357       .  S
C376        C377   1.416       .  A
C376        F381   1.357       .  S
C377       C1566   1.489   1_545  S
C377        C378   1.407       .  A
C378        F379   1.359       .  S
C383        C384   1.410       .  A
C383        C388   1.411       .  A
C383        F390   1.358       .  S
C384        C385   1.402       .  A
C385        C386   1.400       .  A
C385        F392   1.358       .  S
C386        C387   1.409       .  A
C386        F391   1.358       .  S
C387        C388   1.406       .  A
C388        F389   1.357       .  S
C393        C394   1.410       .  A
C393        C398   1.397       .  A
C393        F400   1.355       .  S
C394        C395   1.413       .  A
C395        C396   1.417       .  A
C395        F402   1.357       .  S
C396        C397   1.410       .  A
C396        F401   1.357       .  S
C397        C398   1.404       .  A
C398        F399   1.359       .  S
C403        C408   1.394       .  A
C403       C1016   1.399   1_554  A
C403        F410   1.358       .  S
C404        C405   1.406       .  A
C404       C1015   1.399       .  A
C405       C1018   1.400       .  A
C405        F412   1.358       .  S
C406        C407   1.402       .  A
C406       C1017   1.400   1_554  A
C406        F411   1.355       .  S
C407        C408   1.410       .  A
C408        F409   1.359       .  S
C413        C414   1.411       .  A
C413       C1030   1.414   1_554  A
C413        F420   1.358       .  S
C414        C415   1.406   1_554  A
C415       C1028   1.406       .  A
C415        F422   1.358       .  S
C416       C1027   1.406       .  A
C416       C1641   1.413       .  A
C416        F421   1.358       .  S
C417       C1640   1.413   1_545  A
C417       C1642   1.411   1_545  A
C418       C1025   1.414       .  A
C418       C1641   1.411       .  A
C418       F1643   1.357       .  S
F419       C1642   1.357   1_545  S
C423        C424   1.396       .  A
C423       C1652   1.384       .  A
C423        F430   1.360       .  S
C424       C1649   1.411       .  A
C425        C426   1.413       .  A
C425       C1648   1.411   1_545  A
C425       F1656   1.357       .  S
C426        C427   1.409       .  A
C426        F431   1.357       .  S
C427        C428   1.411       .  A
C428       C1647   1.384   1_545  A
C428        F429   1.348   1_545  S
F432       C1649   1.357       .  S
C433        C434   1.405       .  A
C433        C438   1.402       .  A
C433        F440   1.358       .  S
C434        C435   1.408       .  A
C435        C436   1.396       .  A
C435        F442   1.358       .  S
C436        C437   1.401       .  A
C436        F441   1.358       .  S
C437       C1380   1.470   1_545  S
C437        C438   1.407       .  A
C438       F1663   1.358   1_545  S
F439       C1662   1.358       .  S
C443        C444   1.412       .  A
C443        C448   1.402       .  A
C443        F450   1.358       .  S
C444        C445   1.407       .  A
C445        C446   1.412       .  A
C445        F452   1.354       .  S
C446        C447   1.413       .  A
C446        F451   1.358       .  S
C447        C448   1.404       .  A
C448        F449   1.358       .  S
C453        C454   1.407       .  A
C453        C458   1.396       .  A
C453        F460   1.358       .  S
C454        C455   1.409       .  A
C455        C456   1.413       .  A
C455        F462   1.355       .  S
C456        C457   1.410       .  A
C456        F461   1.357       .  S
C457        C458   1.408       .  A
C458        F459   1.359       .  S
C463        C464   1.405       .  A
C463        C468   1.407       .  A
C463        F470   1.357       .  S
C464       C2575   1.464       .  S
C464        C465   1.404       .  A
C465        C466   1.382       .  A
C465        F472   1.359       .  S
C466        C467   1.401       .  A
C466        F471   1.359       .  S
C467        C468   1.408       .  A
C468        F469   1.356       .  S
C473        C474   1.402       .  A
C473       C1090   1.399   1_554  A
C473        F480   1.356       .  S
C474       C2923   1.408       .  A
C475        C476   1.402       .  A
C475       C2922   1.408       .  A
C475        F482   1.358       .  S
C476       C1089   1.405   1_554  A
C476        F481   1.358       .  S
C477       C1088   1.405       .  A
C477       C2926   1.405       .  A
C478       C1085   1.399       .  A
C478       C2925   1.405   1_455  A
C478        F479   1.355       .  S
C483        C484   1.408       .  A
C483        C488   1.416       .  A
C483        F490   1.357       .  S
C484        C485   1.405       .  A
C485       C2934   1.396       .  A
C485        F492   1.359       .  S
C486        C487   1.409   1_655  A
C486       C2933   1.396       .  A
C486        F491   1.356       .  S
C487       C2936   1.414       .  A
C488       C2935   1.414       .  A
C488        F489   1.357       .  S
C493        C498   1.407       .  A
C493       C2330   1.410       .  A
C493       F1724   1.358       .  S
C494       C2329   1.410       .  A
C494       C1719   1.412       .  A
C495       C1718   1.412       .  A
C495       C1108   1.413       .  A
C495       F1726   1.358       .  S
C496        C497   1.410       .  A
C496       C1107   1.413   1_554  A
C496        F501   1.358       .  S
C497        C498   1.409   1_554  A
C498        F499   1.358       .  S
F500       C1717   1.358       .  S
F502       C1719   1.358   1_545  S
C503        C508   1.397       .  A
C503       C1728   1.419       .  A
C503        F510   1.358       .  S
C504        C505   1.411       .  A
C504       C1727   1.419   1_545  A
C505        C506   1.409       .  A
C505        F512   1.357       .  S
C506       C1731   1.407   1_545  A
C506        F511   1.357       .  S
C507        C508   1.396       .  A
C507       C1730   1.407       .  A
C508        F509   1.358       .  S
C513        C514   1.404       .  A
C513        C518   1.384       .  A
C513        F520   1.359       .  S
C514        C515   1.405       .  A
C515        C516   1.402       .  A
C515        F522   1.358       .  S
C516        C517   1.407       .  A
C516        F521   1.355       .  S
C517       C2516   1.467   1_455  S
C517        C518   1.403       .  A
C518        F519   1.359       .  S
C523        C524   1.406       .  A
C523        C528   1.399       .  A
C523        F530   1.356       .  S
C524        C525   1.404       .  A
C525        C526   1.391       .  A
C525        F532   1.358       .  S
C526        C527   1.406       .  A
C526        F531   1.358       .  S
C527        C528   1.406       .  A
C528        F529   1.358       .  S
C533        C534   1.400       .  A
C533       C3598   1.390       .  A
C533        F540   1.359       .  S
C534        C535   1.417       .  A
C535       C3596   1.423       .  A
C535        F542   1.357       .  S
C536        C537   1.410       .  A
C536       C3595   1.423   1_454  A
C536        F541   1.356       .  S
C537        C538   1.411   1_455  A
C538       C3593   1.390       .  A
C538        F539   1.356   1_655  S
C543        C548   1.398       .  A
C543       C2992   1.404       .  A
C543        F550   1.358       .  S
C544        C545   1.402       .  A
C544       C2991   1.404   1_455  A
C545        C546   1.400       .  A
C545        F552   1.357       .  S
C546       C2995   1.405   1_455  A
C546        F551   1.358       .  S
C547        C548   1.403       .  A
C547       C2994   1.405       .  A
C548        F549   1.358       .  S
C553        C554   1.402       .  A
C553        C558   1.378       .  A
C553        F560   1.359       .  S
C554        C555   1.401       .  A
C555        C556   1.392       .  A
C555        F562   1.358       .  S
C556        C557   1.401       .  A
C556       F1785   1.356       .  S
C557       C1315   1.429       .  S
C557        C558   1.398       .  A
C558        F559   1.360       .  S
F561       C1780   1.356   1_545  S
C563        C564   1.414       .  A
C563        C568   1.394       .  A
C563        F570   1.358       .  S
C564        C565   1.401       .  A
C565        C566   1.389       .  A
C565        F572   1.358       .  S
C566        C567   1.413       .  A
C566        F571   1.358       .  S
C567        C568   1.401       .  A
C568        F569   1.358       .  S
C573        C574   1.390       .  A
C573        C578   1.384       .  A
C573        F580   1.359       .  S
C574       C2474   1.438   1_455  S
C574        C575   1.403       .  A
C575        C576   1.390       .  A
C575        F582   1.359   1_455  S
C576        C577   1.403       .  A
C576        F581   1.358       .  S
C577       C1433   1.462       .  S
C577        C578   1.416       .  A
C578        F579   1.358       .  S
C583        C584   1.402       .  A
C583        C588   1.398       .  A
C583        F590   1.358       .  S
C584        C585   1.397       .  A
C585        C586   1.389       .  A
C585        F592   1.359       .  S
C586        C587   1.410       .  A
C586        F591   1.359       .  S
C587        C588   1.405       .  A
C588        F589   1.355       .  S
C593        C594   1.421       .  A
C593        C598   1.407       .  A
C593        F600   1.358       .  S
C594       C1207   1.399       .  A
C595        C596   1.408       .  A
C595       C1206   1.399   1_554  A
C595        F602   1.357       .  S
C596        C597   1.424       .  A
C596        F601   1.357       .  S
C597       C1210   1.403   1_554  A
C598       C1209   1.403       .  A
C598        F599   1.357       .  S
C603        C604   1.410       .  A
C603        C608   1.403       .  A
C603        F610   1.358       .  S
C604        C605   1.410       .  A
C605        C606   1.389       .  A
C605        F612   1.358       .  S
C606        C607   1.411       .  A
C606        F611   1.359       .  S
C607        C608   1.411       .  A
C608        F609   1.358       .  S
O613       Zr625   2.451       .  S
O613        C615   1.289       .  A
O614       Zr651   2.398       .  S
O614        C615   1.282       .  A
C615       C1219   1.489       .  S
O616       Zr628   2.375       .  S
O616        C618   1.274       .  A
O617       Zr652   2.523       .  S
O617        C618   1.304       .  A
C618       C1206   1.498       .  S
O619       Zr628   2.365       .  S
O619        C621   1.275       .  A
O620       Zr651   2.411       .  S
O620        C621   1.282       .  A
C621       C1166   1.437       .  S
O622       Zr625   2.410       .  S
O622        C624   1.282       .  A
O623       Zr652   2.428       .  S
O623        C624   1.289       .  A
C624       C1196   1.449       .  S
Zr625       O626   2.434       .  S
Zr625       O627   2.436       .  S
Zr625       O631   2.351       .  S
Zr625       O632   2.378       .  S
Zr625       O655   2.362       .  S
Zr625       O657   2.367       .  S
O626        H669   0.990       .  S
O627        H668   0.990       .  S
O627        H672   0.990       .  S
Zr628       O629   2.436       .  S
Zr628       O630   2.435       .  S
Zr628       O632   2.346       .  S
Zr628       O631   2.359       .  S
Zr628       O656   2.344       .  S
Zr628       O658   2.369       .  S
O629        H670   0.990       .  S
O629        H673   0.990       .  S
O630        H663   0.990       .  S
O631       Zr651   2.374       .  S
O632       Zr652   2.394       .  S
O632        H659   0.966       .  S
O633       Zr645   2.409       .  S
O633        C635   1.283       .  A
O634       Zr652   2.424       .  S
O634        C635   1.290       .  A
C635       C1176   1.471       .  S
O636       Zr648   2.401       .  S
O636        C638   1.280       .  A
O637       Zr651   2.400       .  S
O637        C638   1.281       .  A
C638       C3634   1.438       .  S
O639       Zr648   2.380       .  S
O639        C641   1.275       .  A
O640       Zr652   2.516       .  S
O640        C641   1.304       .  A
C641       C1146   1.481       .  S
O642       Zr645   2.444       .  S
O642        C644   1.288       .  A
O643       Zr651   2.417       .  S
O643        C644   1.285       .  A
C644       C1159   1.467       .  S
Zr645       O646   2.436       .  S
Zr645       O647   2.434       .  S
Zr645       O653   2.374       .  S
Zr645       O654   2.357       .  S
Zr645       O657   2.365       .  S
Zr645       O655   2.363       .  S
O646        H666   0.990       .  S
O646        H671   0.990       .  S
O647        H667   0.990       .  S
Zr648       O649   2.433       .  S
Zr648       O650   2.436       .  S
Zr648       O654   2.356       .  S
Zr648       O653   2.361       .  S
Zr648       O658   2.382       .  S
Zr648       O656   2.345       .  S
O649       H3113   0.990       .  S
O650        H664   0.989       .  S
O650        H674   0.990       .  S
Zr651       O654   2.374       .  S
Zr651       O656   2.374       .  S
Zr651       O657   2.377       .  S
Zr652       O653   2.401       .  S
Zr652       O655   2.407       .  S
Zr652       O658   2.372       .  S
O653        H661   0.965       .  S
O656        H660   0.965       .  S
O657        H662   0.966       .  S
H665       O3097   0.990       .  S
O675       Zr687   2.402       .  S
O675        C677   1.282       .  A
O676       Zr713   2.433       .  S
O676        C677   1.290       .  A
C677       C1179   1.471       .  S
O678       Zr690   2.432       .  S
O678        C680   1.288       .  A
O679       Zr714   2.409       .  S
O679        C680   1.282       .  A
C680       C3577   1.467       .  S
O681       Zr690   2.410       .  S
O681        C683   1.282       .  A
O682       Zr713   2.485       .  S
O682        C683   1.297       .  A
C683       C1096   1.484       .  S
O684       Zr687   2.424       .  S
O684        C686   1.284       .  A
O685       Zr714   2.461       .  S
O685        C686   1.295       .  A
C686       C1089   1.477       .  S
Zr687       O688   2.434       .  S
Zr687       O689   2.434       .  S
Zr687       O693   2.386       .  S
Zr687       O694   2.363       .  S
Zr687       O717   2.382       .  S
Zr687       O719   2.367       .  S
O688        H731   0.990       .  S
O689        H730   0.990       .  S
O689        H734   0.990       .  S
Zr690       O691   2.435       .  S
Zr690       O692   2.434       .  S
Zr690       O694   2.345       .  S
Zr690       O693   2.368       .  S
Zr690       O718   2.372       .  S
Zr690       O720   2.352       .  S
O691        H732   0.990       .  S
O691       H3183   0.990       .  S
O692        H725   0.990       .  S
O693       Zr713   2.395       .  S
O694       Zr714   2.388       .  S
O694        H721   0.964       .  S
O695       Zr707   2.470       .  S
O695        C697   1.291       .  A
O696       Zr714   2.464       .  S
O696        C697   1.295       .  A
C697       C1106   1.505   1_545  S
O698       Zr710   2.404       .  S
O698        C700   1.273       .  A
O699       Zr713   2.475       .  S
O699        C700   1.290       .  A
C700       C1116   1.499       .  S
O701       Zr710   2.371       .  S
O701        C703   1.275       .  A
O702       Zr714   2.403       .  S
O702        C703   1.280       .  A
C703       C2393   1.429   1_545  S
O704       Zr707   2.434       .  S
O704        C706   1.289       .  A
O705       Zr713   2.420       .  S
O705        C706   1.287       .  A
C706       C1139   1.472       .  S
Zr707       O708   2.437       .  S
Zr707       O709   2.434       .  S
Zr707       O715   2.362       .  S
Zr707       O716   2.375       .  S
Zr707       O719   2.371       .  S
Zr707       O717   2.378       .  S
O708        H728   0.990       .  S
O708        H733   0.990       .  S
O709        H729   0.990       .  S
Zr710      O1935   2.434   1_545  S
Zr710       O712   2.436       .  S
Zr710       O716   2.341       .  S
Zr710       O715   2.359       .  S
Zr710       O720   2.355       .  S
Zr710       O718   2.351       .  S
O711      Zr1934   2.434       .  S
O711       H1951   0.990       .  S
O712        H726   0.990       .  S
O712        H736   0.990       .  S
Zr713       O716   2.393       .  S
Zr713       O718   2.386       .  S
Zr713       O719   2.416       .  S
Zr714       O715   2.393       .  S
Zr714       O717   2.383       .  S
Zr714       O720   2.390       .  S
O715        H723   0.965       .  S
O718        H722   0.965       .  S
O719        H724   0.966       .  S
H727       O1935   0.990       .  S
H735       O3139   0.990       .  S
O737       Zr749   2.406       .  S
O737        C739   1.282       .  A
O738       Zr775   2.435       .  S
O738        C739   1.286       .  A
C739       C3524   1.464   1_455  S
O740       Zr752   2.407       .  S
O740        C742   1.282       .  A
O741       Zr776   2.503       .  S
O741        C742   1.302       .  A
C742       C1056   1.494       .  S
O743       Zr752   2.447       .  S
O743        C745   1.287       .  A
O744       Zr775   2.414       .  S
O744        C745   1.284       .  A
C745       C1156   1.465       .  S
O746       Zr749   2.377       .  S
O746        C748   1.276       .  A
O747       Zr776   2.528       .  S
O747        C748   1.305       .  A
C748       C1149   1.497       .  S
Zr749      O3198   2.434   1_455  S
Zr749       O751   2.435       .  S
Zr749       O755   2.351       .  S
Zr749       O756   2.369       .  S
Zr749       O779   2.363       .  S
Zr749       O781   2.351       .  S
O750      Zr3197   2.434       .  S
O750        H793   0.990       .  S
O751        H792   0.989       .  S
O751        H796   0.990       .  S
Zr752       O753   2.437       .  S
Zr752       O754   2.435       .  S
Zr752       O756   2.374       .  S
Zr752       O755   2.356       .  S
Zr752       O780   2.365       .  S
Zr752       O782   2.377       .  S
O753        H794   0.990       .  S
O753        H797   0.990       .  S
O754        H787   0.990       .  S
O755       Zr775   2.372       .  S
O756       Zr776   2.402       .  S
O756        H783   0.965       .  S
O757       Zr769   2.396       .  S
O757        C759   1.279       .  A
O758       Zr776   2.516       .  S
O758        C759   1.305       .  A
C759       C1026   1.489       .  S
O760       Zr772   2.456       .  S
O760        C762   1.289       .  A
O761       Zr775   2.411       .  S
O761        C762   1.287       .  A
C762       C1036   1.477       .  S
O763       Zr772   2.438       .  S
O763        C765   1.289       .  A
O764       Zr776   2.467       .  S
O764        C765   1.295       .  A
C765       C1066   1.492       .  S
O766       Zr769   2.464       .  S
O766        C768   1.293       .  A
O767       Zr775   2.404       .  S
O767        C768   1.282       .  A
C768       C2273   1.470       .  S
Zr769       O770   2.436       .  S
Zr769       O771   2.436       .  S
Zr769       O777   2.375       .  S
Zr769       O778   2.346       .  S
Zr769       O781   2.349       .  S
Zr769       O779   2.394       .  S
O770        H790   0.990       .  S
O770       H2019   0.990       .  S
O771        H791   0.990       .  S
Zr772       O773   2.433       .  S
Zr772       O774   2.434       .  S
Zr772       O778   2.363       .  S
Zr772       O777   2.377       .  S
Zr772       O782   2.371       .  S
Zr772       O780   2.380       .  S
O773        H789   0.990       .  S
O774        H788   0.990       .  S
O774        H798   0.990       .  S
Zr775       O778   2.380       .  S
Zr775       O780   2.389       .  S
Zr775       O781   2.371       .  S
Zr776       O777   2.419       .  S
Zr776       O779   2.400       .  S
Zr776       O782   2.410       .  S
O777        H785   0.966       .  S
O780        H784   0.966       .  S
O781        H786   0.965       .  S
H795       O1994   0.990       .  S
O799       Zr811   2.403       .  S
O799        C801   1.280       .  A
O800       Zr837   2.493       .  S
O800        C801   1.298       .  A
C801       C1009   1.487       .  S
O802       Zr814   2.409       .  S
O802        C804   1.281       .  A
O803       Zr838   2.453       .  S
O803        C804   1.292       .  A
C804       C1016   1.462       .  S
O805       Zr814   2.398       .  S
O805        C807   1.281       .  A
O806       Zr837   2.440       .  S
O806        C807   1.290       .  A
C807       C1199   1.468       .  S
O808       Zr811   2.420       .  S
O808        C810   1.285       .  A
O809       Zr838   2.413       .  S
O809        C810   1.284       .  A
C810       C1126   1.465       .  S
Zr811       O812   2.434       .  S
Zr811       O813   2.437       .  S
Zr811       O817   2.365       .  S
Zr811       O818   2.348       .  S
Zr811       O841   2.348       .  S
Zr811       O843   2.369       .  S
O812        H855   0.990       .  S
O813        H854   0.990       .  S
O813        H858   0.990       .  S
Zr814       O815   2.436       .  S
Zr814       O816   2.435       .  S
Zr814       O818   2.361       .  S
Zr814       O817   2.377       .  S
Zr814       O842   2.365       .  S
Zr814       O844   2.379       .  S
O815        H856   0.990       .  S
O815        H859   0.990       .  S
O816        H849   0.990       .  S
O817       Zr837   2.385       .  S
O818       Zr838   2.385       .  S
O818        H845   0.965       .  S
O819       Zr831   2.394       .  S
O819        C821   1.270       .  A
O820       Zr838   2.427       .  S
O820        C821   1.283       .  A
C821       C2413   1.462   1_545  S
O822       Zr834   2.442       .  S
O822        C824   1.290       .  A
O823       Zr837   2.417       .  S
O823        C824   1.287       .  A
C824       C1136   1.471       .  S
O825       Zr834   2.500       .  S
O825        C827   1.299       .  A
O826       Zr838   2.448       .  S
O826        C827   1.294       .  A
C827       C1029   1.507       .  S
O828       Zr831   2.415       .  S
O828        C830   1.272       .  A
O829       Zr837   2.467       .  S
O829        C830   1.286       .  A
C830       C1039   1.491       .  S
Zr831      O2056   2.452   1_545  S
Zr831       O833   2.443       .  S
Zr831       O839   2.355       .  S
Zr831       O840   2.348       .  S
Zr831       O843   2.377       .  S
Zr831       O841   2.363       .  S
O832      Zr2055   2.452       .  S
O832        H852   0.990       .  S
O832        H857   0.990       .  S
O833        H853   0.990       .  S
Zr834       O835   2.433       .  S
Zr834       O836   2.433       .  S
Zr834       O840   2.383       .  S
Zr834       O839   2.352       .  S
Zr834       O844   2.371       .  S
Zr834       O842   2.380       .  S
O835        H851   0.990       .  S
O836        H850   0.990       .  S
O836        H860   0.990       .  S
Zr837       O840   2.407       .  S
Zr837       O842   2.419       .  S
Zr837       O843   2.388       .  S
Zr838       O839   2.390       .  S
Zr838       O841   2.378       .  S
Zr838       O844   2.389       .  S
O839        H847   0.962       .  S
O842        H846   0.966       .  S
O843        H848   0.965       .  S
O861       Zr873   2.483       .  S
O861        C863   1.296       .  A
O862       Zr899   2.431       .  S
O862        C863   1.291       .  A
C863       C1099   1.499       .  S
O864       Zr876   2.391       .  S
O864        C866   1.275       .  A
O865       Zr900   2.467       .  S
O865        C866   1.293       .  A
C866       C1086   1.469       .  S
O867       Zr876   2.419       .  S
O867        C869   1.277       .  A
O868       Zr899   2.447       .  S
O868        C869   1.285       .  A
C869       C3434   1.480   1_455  S
O870       Zr873   2.486       .  S
O870        C872   1.297       .  A
O871       Zr900   2.428       .  S
O871        C872   1.287       .  A
C872       C1059   1.494       .  S
Zr873       O874   2.434       .  S
Zr873       O875   2.434       .  S
Zr873       O879   2.364       .  S
Zr873       O880   2.384       .  S
Zr873       O903   2.373       .  S
Zr873       O905   2.395       .  S
O874        H917   0.990       .  S
O875        H916   0.990       .  S
O875        H920   0.990       .  S
Zr876      O3325   2.442   1_455  S
Zr876       O878   2.442       .  S
Zr876       O880   2.371       .  S
Zr876       O879   2.352       .  S
Zr876       O904   2.362       .  S
Zr876       O906   2.367       .  S
O877      Zr3324   2.442       .  S
O877        H918   0.990       .  S
O877        H921   0.990       .  S
O878        H911   0.989       .  S
O879       Zr899   2.385       .  S
O880       Zr900   2.396       .  S
O880        H907   0.966       .  S
O881       Zr893   2.487       .  S
O881        C883   1.297       .  A
O882       Zr900   2.418       .  S
O882        C883   1.285       .  A
C883        C996   1.484       .  S
O884       Zr896   2.406       .  S
O884        C886   1.281       .  A
O885       Zr899   2.450       .  S
O885        C886   1.291       .  A
C886       C1046   1.472       .  S
O887       Zr896   2.377       .  S
O887        C889   1.276       .  A
O888       Zr900   2.462       .  S
O888        C889   1.292       .  A
C889       C1019   1.466       .  S
O890       Zr893   2.490       .  S
O890        C892   1.297       .  A
O891       Zr899   2.436       .  S
O891        C892   1.292       .  A
C892       C1006   1.502       .  S
Zr893       O894   2.437       .  S
Zr893       O895   2.435       .  S
Zr893       O901   2.383       .  S
Zr893       O902   2.366       .  S
Zr893       O905   2.392       .  S
Zr893       O903   2.379       .  S
O894        H914   0.990       .  S
O894        H919   0.990       .  S
O895        H915   0.990       .  S
Zr896       O897   2.434       .  S
Zr896       O898   2.435       .  S
Zr896       O902   2.342       .  S
Zr896       O901   2.367       .  S
Zr896       O906   2.370       .  S
Zr896       O904   2.356       .  S
O897        H913   0.990       .  S
O898        H912   0.990       .  S
O898        H922   0.990       .  S
Zr899       O902   2.375       .  S
Zr899       O904   2.381       .  S
Zr899       O905   2.415       .  S
Zr900       O901   2.398       .  S
Zr900       O903   2.404       .  S
Zr900       O906   2.372       .  S
O901        H909   0.966       .  S
O904        H908   0.965       .  S
O905        H910   0.966       .  S
O923       Zr935   2.460       .  S
O923        C925   1.290       .  A
O924       Zr961   2.430       .  S
O924        C925   1.287       .  A
C925       C1119   1.476       .  S
O926       Zr938   2.411       .  S
O926        C928   1.283       .  A
O927       Zr962   2.489       .  S
O927        C928   1.299       .  A
C928        C999   1.482       .  S
O929       Zr938   2.448       .  S
O929        C931   1.289       .  A
O930       Zr961   2.408       .  S
O930        C931   1.284       .  A
C931       C1216   1.487       .  S
O932       Zr935   2.434       .  S
O932        C934   1.289       .  A
O933       Zr962   2.466       .  S
O933        C934   1.295       .  A
C934       C1069   1.492       .  S
Zr935       O936   2.434       .  S
Zr935       O937   2.435       .  S
Zr935       O941   2.377       .  S
Zr935       O942   2.369       .  S
Zr935       O965   2.377       .  S
Zr935       O967   2.361       .  S
O936        H979   0.990       .  S
O937        H978   0.990       .  S
O937        H982   0.990       .  S
Zr938       O939   2.434       .  S
Zr938       O940   2.434       .  S
Zr938       O942   2.377       .  S
Zr938       O941   2.372       .  S
Zr938       O966   2.361       .  S
Zr938       O968   2.379       .  S
O939        H980   0.990       .  S
O939        H983   0.990       .  S
O940        H973   0.990       .  S
O941       Zr961   2.381       .  S
O942       Zr962   2.413       .  S
O942        H969   0.965       .  S
O943       Zr955   2.382       .  S
O943        C945   1.276       .  A
O944       Zr962   2.523       .  S
O944        C945   1.306       .  A
C945       C1109   1.488       .  S
O946       Zr958   2.422       .  S
O946        C948   1.286       .  A
O947       Zr961   2.424       .  S
O947        C948   1.285       .  A
C948       C1079   1.466       .  S
O949       Zr958   2.399       .  S
O949        C951   1.280       .  A
O950       Zr962   2.509       .  S
O950        C951   1.304       .  A
C951       C1209   1.507       .  S
O952       Zr955   2.434       .  S
O952        C954   1.288       .  A
O953       Zr961   2.413       .  S
O953        C954   1.283       .  A
C954       C2213   1.489       .  S
Zr955       O956   2.436       .  S
Zr955       O957   2.434       .  S
Zr955       O963   2.381       .  S
Zr955       O964   2.344       .  S
Zr955       O967   2.349       .  S
Zr955       O965   2.371       .  S
O956        H976   0.990       .  S
O956        H981   0.990       .  S
O957        H977   0.990       .  S
Zr958       O959   2.435       .  S
Zr958       O960   2.435       .  S
Zr958       O964   2.355       .  S
Zr958       O963   2.366       .  S
Zr958       O968   2.369       .  S
Zr958       O966   2.351       .  S
O959        H975   0.990       .  S
O960        H974   0.990       .  S
O960        H984   0.990       .  S
Zr961       O964   2.377       .  S
Zr961       O966   2.384       .  S
Zr961       O967   2.380       .  S
Zr962       O963   2.399       .  S
Zr962       O965   2.405       .  S
Zr962       O968   2.400       .  S
O963        H971   0.966       .  S
O966        H970   0.965       .  S
O967        H972   0.966       .  S
C985        C986   1.405       .  A
C985        C990   1.383       .  A
C985        F992   1.353       .  S
C986       C3317   1.480       .  S
C986        C987   1.406       .  A
C987        C988   1.408       .  A
C987        F994   1.357       .  S
C988        C989   1.416       .  A
C988        F993   1.357       .  S
C989       C2178   1.489   1_545  S
C989        C990   1.407       .  A
C990        F991   1.359       .  S
C995        C996   1.410       .  A
C995       C1000   1.411       .  A
C995       F1002   1.358       .  S
C996        C997   1.402       .  A
C997        C998   1.400       .  A
C997       F1004   1.358       .  S
C998        C999   1.409       .  A
C998       F1003   1.358       .  S
C999       C1000   1.406       .  A
C1000      F1001   1.357       .  S
C1005      C1006   1.410       .  A
C1005      C1010   1.397       .  A
C1005      F1012   1.355       .  S
C1006      C1007   1.413       .  A
C1007      C1008   1.417       .  A
C1007      F1014   1.357       .  S
C1008      C1009   1.410       .  A
C1008      F1013   1.357       .  S
C1009      C1010   1.404       .  A
C1010      F1011   1.359       .  S
C1015      C1020   1.394       .  A
C1015      F1022   1.358       .  S
C1016      C1017   1.406       .  A
C1017      F1024   1.358       .  S
C1018      C1019   1.402       .  A
C1018      F1023   1.355       .  S
C1019      C1020   1.410       .  A
C1020      F1021   1.359       .  S
C1025      C1026   1.411       .  A
C1025      F1032   1.358       .  S
C1026      C1027   1.406       .  A
C1027      F1034   1.358       .  S
C1028      C2253   1.413       .  A
C1028      F1033   1.358       .  S
C1029      C2252   1.413   1_545  A
C1029      C2254   1.411   1_545  A
C1030      C2253   1.411       .  A
C1030      F2255   1.357       .  S
F1031      C2254   1.357   1_545  S
C1035      C1036   1.396       .  A
C1035      C2264   1.384       .  A
C1035      F1042   1.360       .  S
C1036      C2261   1.411       .  A
C1037      C2260   1.411   1_545  A
C1037      C1038   1.413       .  A
C1037      F2268   1.357       .  S
C1038      C1039   1.409       .  A
C1038      F1043   1.357       .  S
C1039      C1040   1.411       .  A
C1040      C2259   1.384   1_545  A
C1040      F1041   1.348   1_545  S
F1044      C2261   1.357       .  S
C1045      C1046   1.405       .  A
C1045      C1050   1.402       .  A
C1045      F1052   1.358       .  S
C1046      C1047   1.408       .  A
C1047      C1048   1.396       .  A
C1047      F1054   1.358       .  S
C1048      C1049   1.401       .  A
C1048      F1053   1.358       .  S
C1049      C1992   1.470   1_545  S
C1049      C1050   1.407       .  A
C1050      F2275   1.358   1_545  S
F1051      C2274   1.358       .  S
C1055      C1056   1.412       .  A
C1055      C1060   1.402       .  A
C1055      F1062   1.358       .  S
C1056      C1057   1.407       .  A
C1057      C1058   1.412       .  A
C1057      F1064   1.354       .  S
C1058      C1059   1.413       .  A
C1058      F1063   1.358       .  S
C1059      C1060   1.404       .  A
C1060      F1061   1.358       .  S
C1065      C1066   1.407       .  A
C1065      C1070   1.396       .  A
C1065      F1072   1.358       .  S
C1066      C1067   1.409       .  A
C1067      C1068   1.413       .  A
C1067      F1074   1.355       .  S
C1068      C1069   1.410       .  A
C1068      F1073   1.357       .  S
C1069      C1070   1.408       .  A
C1070      F1071   1.359       .  S
C1075      C1076   1.405       .  A
C1075      C1080   1.407       .  A
C1075      F1082   1.357       .  S
C1076      C3187   1.464       .  S
C1076      C1077   1.404       .  A
C1077      C1078   1.382       .  A
C1077      F1084   1.359       .  S
C1078      C1079   1.401       .  A
C1078      F1083   1.359       .  S
C1079      C1080   1.408       .  A
C1080      F1081   1.356       .  S
C1085      C1086   1.402       .  A
C1085      F1092   1.356       .  S
C1086      C3535   1.408       .  A
C1087      C3534   1.408       .  A
C1087      C1088   1.402       .  A
C1087      F1094   1.358       .  S
C1088      F1093   1.358       .  S
C1089      C3538   1.405       .  A
C1090      C3537   1.405   1_455  A
C1090      F1091   1.355       .  S
C1095      C1096   1.408       .  A
C1095      C1100   1.416       .  A
C1095      F1102   1.357       .  S
C1096      C1097   1.405       .  A
C1097      C3546   1.396       .  A
C1097      F1104   1.359       .  S
C1098      C3545   1.396       .  A
C1098      C1099   1.409   1_655  A
C1098      F1103   1.356       .  S
C1099      C3548   1.414       .  A
C1100      C3547   1.414       .  A
C1100      F1101   1.357       .  S
C1105      C1718   1.410       .  A
C1105      C1110   1.407       .  A
C1105      F2336   1.358       .  S
C1106      C1717   1.410       .  A
C1106      C2331   1.412       .  A
C1107      C2330   1.412       .  A
C1107      F2338   1.358       .  S
C1108      C1109   1.410       .  A
C1108      F1113   1.358       .  S
C1109      C1110   1.409       .  A
C1110      F1111   1.358       .  S
F1112      C2329   1.358       .  S
F1114      C2331   1.358   1_545  S
C1115      C2340   1.419       .  A
C1115      C1120   1.397       .  A
C1115      F1122   1.358       .  S
C1116      C2339   1.419   1_545  A
C1116      C1117   1.411       .  A
C1117      C1118   1.409       .  A
C1117      F1124   1.357       .  S
C1118      C2343   1.407   1_545  A
C1118      F1123   1.357       .  S
C1119      C2342   1.407       .  A
C1119      C1120   1.396       .  A
C1120      F1121   1.358       .  S
C1125      C1126   1.404       .  A
C1125      C1130   1.384       .  A
C1125      F1132   1.359       .  S
C1126      C1127   1.405       .  A
C1127      C1128   1.402       .  A
C1127      F1134   1.358       .  S
C1128      C1129   1.407       .  A
C1128      F1133   1.355       .  S
C1129      C3128   1.467   1_455  S
C1129      C1130   1.403       .  A
C1130      F1131   1.359       .  S
C1135      C1136   1.406       .  A
C1135      C1140   1.399       .  A
C1135      F1142   1.356       .  S
C1136      C1137   1.404       .  A
C1137      C1138   1.391       .  A
C1137      F1144   1.358       .  S
C1138      C1139   1.406       .  A
C1138      F1143   1.358       .  S
C1139      C1140   1.406       .  A
C1140      F1141   1.358       .  S
C1145      C1146   1.400   1_554  A
C1145      C2986   1.390       .  A
C1145      F1152   1.359   1_554  S
C1146      C1147   1.417       .  A
C1147      C2984   1.423   1_556  A
C1147      F1154   1.357       .  S
C1148      C2983   1.423   1_455  A
C1148      C1149   1.410       .  A
C1148      F1153   1.356       .  S
C1149      C1150   1.411   1_455  A
C1150      C2981   1.390       .  A
C1150      F1151   1.356   1_655  S
C1155      C3604   1.404       .  A
C1155      C1160   1.398       .  A
C1155      F1162   1.358       .  S
C1156      C3603   1.404   1_455  A
C1156      C1157   1.402       .  A
C1157      C1158   1.400       .  A
C1157      F1164   1.357       .  S
C1158      C3607   1.405   1_455  A
C1158      F1163   1.358       .  S
C1159      C3606   1.405       .  A
C1159      C1160   1.403       .  A
C1160      F1161   1.358       .  S
C1165      C1166   1.402       .  A
C1165      C1170   1.378       .  A
C1165      F1172   1.359       .  S
C1166      C1167   1.401       .  A
C1167      C1168   1.392       .  A
C1167      F1174   1.358       .  S
C1168      C1169   1.401       .  A
C1168      F2397   1.356       .  S
C1169      C1927   1.429       .  S
C1169      C1170   1.398       .  A
C1170      F1171   1.360       .  S
F1173      C2392   1.356   1_545  S
C1175      C1176   1.414       .  A
C1175      C1180   1.394       .  A
C1175      F1182   1.358       .  S
C1176      C1177   1.401       .  A
C1177      C1178   1.389       .  A
C1177      F1184   1.358       .  S
C1178      C1179   1.413       .  A
C1178      F1183   1.358       .  S
C1179      C1180   1.401       .  A
C1180      F1181   1.358       .  S
C1185      C1186   1.390       .  A
C1185      C1190   1.384       .  A
C1185      F1192   1.359       .  S
C1186      C3086   1.438   1_455  S
C1186      C1187   1.403       .  A
C1187      C1188   1.390       .  A
C1187      F1194   1.359   1_455  S
C1188      C1189   1.403       .  A
C1188      F1193   1.358       .  S
C1189      C2045   1.462       .  S
C1189      C1190   1.416       .  A
C1190      F1191   1.358       .  S
C1195      C1196   1.402       .  A
C1195      C1200   1.398       .  A
C1195      F1202   1.358       .  S
C1196      C1197   1.397       .  A
C1197      C1198   1.389       .  A
C1197      F1204   1.359       .  S
C1198      C1199   1.410       .  A
C1198      F1203   1.359       .  S
C1199      C1200   1.405       .  A
C1200      F1201   1.355       .  S
C1205      C1206   1.421       .  A
C1205      C1210   1.407       .  A
C1205      F1212   1.358       .  S
C1207      C1208   1.408       .  A
C1207      F1214   1.357       .  S
C1208      C1209   1.424       .  A
C1208      F1213   1.357       .  S
C1210      F1211   1.357       .  S
C1215      C1216   1.410       .  A
C1215      C1220   1.403       .  A
C1215      F1222   1.358       .  S
C1216      C1217   1.410       .  A
C1217      C1218   1.389       .  A
C1217      F1224   1.358       .  S
C1218      C1219   1.411       .  A
C1218      F1223   1.359       .  S
C1219      C1220   1.411       .  A
C1220      F1221   1.358       .  S
O1225     Zr1237   2.451       .  S
O1225      C1227   1.289       .  A
O1226     Zr1263   2.398       .  S
O1226      C1227   1.282       .  A
C1227      C1831   1.489       .  S
O1228     Zr1240   2.375       .  S
O1228      C1230   1.274       .  A
O1229     Zr1264   2.523       .  S
O1229      C1230   1.304       .  A
C1230      C1818   1.498       .  S
O1231     Zr1240   2.365       .  S
O1231      C1233   1.275       .  A
O1232     Zr1263   2.411       .  S
O1232      C1233   1.282       .  A
C1233      C1778   1.437       .  S
O1234     Zr1237   2.410       .  S
O1234      C1236   1.282       .  A
O1235     Zr1264   2.428       .  S
O1235      C1236   1.289       .  A
C1236      C1808   1.449       .  S
Zr1237     O1238   2.434       .  S
Zr1237     O1239   2.436       .  S
Zr1237     O1243   2.351       .  S
Zr1237     O1244   2.378       .  S
Zr1237     O1267   2.362       .  S
Zr1237     O1269   2.367       .  S
O1238      H1281   0.990       .  S
O1239      H1280   0.990       .  S
O1239      H1284   0.990       .  S
Zr1240     O1241   2.436       .  S
Zr1240     O1242   2.435       .  S
Zr1240     O1244   2.346       .  S
Zr1240     O1243   2.359       .  S
Zr1240     O1268   2.344       .  S
Zr1240     O1270   2.369       .  S
O1241      H1282   0.990       .  S
O1241      H1285   0.990       .  S
O1242      H1275   0.990       .  S
O1243     Zr1263   2.374       .  S
O1244     Zr1264   2.394       .  S
O1244      H1271   0.966       .  S
O1245     Zr1257   2.409       .  S
O1245      C1247   1.283       .  A
O1246     Zr1264   2.424       .  S
O1246      C1247   1.290       .  A
C1247      C1788   1.471       .  S
O1248     Zr1260   2.401       .  S
O1248      C1250   1.280       .  A
O1249     Zr1263   2.400       .  S
O1249      C1250   1.281       .  A
C1250      C4246   1.438       .  S
O1251     Zr1260   2.380       .  S
O1251      C1253   1.275       .  A
O1252     Zr1264   2.516       .  S
O1252      C1253   1.304       .  A
C1253      C1758   1.481       .  S
O1254     Zr1257   2.444       .  S
O1254      C1256   1.288       .  A
O1255     Zr1263   2.417       .  S
O1255      C1256   1.285       .  A
C1256      C1771   1.467       .  S
Zr1257     O1258   2.436       .  S
Zr1257     O1259   2.434       .  S
Zr1257     O1265   2.374       .  S
Zr1257     O1266   2.357       .  S
Zr1257     O1269   2.365       .  S
Zr1257     O1267   2.363       .  S
O1258      H1278   0.990       .  S
O1258      H1283   0.990       .  S
O1259      H1279   0.990       .  S
Zr1260     O1261   2.433       .  S
Zr1260     O1262   2.436       .  S
Zr1260     O1266   2.356       .  S
Zr1260     O1265   2.361       .  S
Zr1260     O1270   2.382       .  S
Zr1260     O1268   2.345       .  S
O1261      H3725   0.990       .  S
O1262      H1276   0.989       .  S
O1262      H1286   0.990       .  S
Zr1263     O1266   2.374       .  S
Zr1263     O1268   2.374       .  S
Zr1263     O1269   2.377       .  S
Zr1264     O1265   2.401       .  S
Zr1264     O1267   2.407       .  S
Zr1264     O1270   2.372       .  S
O1265      H1273   0.965       .  S
O1268      H1272   0.965       .  S
O1269      H1274   0.966       .  S
H1277      O3709   0.990       .  S
O1287     Zr1299   2.402       .  S
O1287      C1289   1.282       .  A
O1288     Zr1325   2.433       .  S
O1288      C1289   1.290       .  A
C1289      C1791   1.471       .  S
O1290     Zr1302   2.432       .  S
O1290      C1292   1.288       .  A
O1291     Zr1326   2.409       .  S
O1291      C1292   1.282       .  A
C1292      C4189   1.467       .  S
O1293     Zr1302   2.410       .  S
O1293      C1295   1.282       .  A
O1294     Zr1325   2.485       .  S
O1294      C1295   1.297       .  A
C1295      C1708   1.484       .  S
O1296     Zr1299   2.424       .  S
O1296      C1298   1.284       .  A
O1297     Zr1326   2.461       .  S
O1297      C1298   1.295       .  A
C1298      C1701   1.477       .  S
Zr1299     O1300   2.434       .  S
Zr1299     O1301   2.434       .  S
Zr1299     O1305   2.386       .  S
Zr1299     O1306   2.363       .  S
Zr1299     O1329   2.382       .  S
Zr1299     O1331   2.367       .  S
O1300      H1343   0.990       .  S
O1301      H1342   0.990       .  S
O1301      H1346   0.990       .  S
Zr1302     O1303   2.435       .  S
Zr1302     O1304   2.434       .  S
Zr1302     O1306   2.345       .  S
Zr1302     O1305   2.368       .  S
Zr1302     O1330   2.372       .  S
Zr1302     O1332   2.352       .  S
O1303      H1344   0.990       .  S
O1303      H3795   0.990       .  S
O1304      H1337   0.990       .  S
O1305     Zr1325   2.395       .  S
O1306     Zr1326   2.388       .  S
O1306      H1333   0.964       .  S
O1307     Zr1319   2.470       .  S
O1307      C1309   1.291       .  A
O1308     Zr1326   2.464       .  S
O1308      C1309   1.295       .  A
C1309      C1718   1.505       .  S
O1310     Zr1322   2.404       .  S
O1310      C1312   1.273       .  A
O1311     Zr1325   2.475       .  S
O1311      C1312   1.290       .  A
C1312      C1728   1.499       .  S
O1313     Zr1322   2.371       .  S
O1313      C1315   1.275       .  A
O1314     Zr1326   2.403       .  S
O1314      C1315   1.280       .  A
O1316     Zr1319   2.434       .  S
O1316      C1318   1.289       .  A
O1317     Zr1325   2.420       .  S
O1317      C1318   1.287       .  A
C1318      C1751   1.472       .  S
Zr1319     O1320   2.437       .  S
Zr1319     O1321   2.434       .  S
Zr1319     O1327   2.362       .  S
Zr1319     O1328   2.375       .  S
Zr1319     O1331   2.371       .  S
Zr1319     O1329   2.378       .  S
O1320      H1340   0.990       .  S
O1320      H1345   0.990       .  S
O1321      H1341   0.990       .  S
Zr1322     O1324   2.436       .  S
Zr1322     O1328   2.341       .  S
Zr1322     O1327   2.359       .  S
Zr1322     O1332   2.355       .  S
Zr1322     O1330   2.351       .  S
O1324      H1338   0.990       .  S
O1324      H1348   0.990       .  S
Zr1325     O1328   2.393       .  S
Zr1325     O1330   2.386       .  S
Zr1325     O1331   2.416       .  S
Zr1326     O1327   2.393       .  S
Zr1326     O1329   2.383       .  S
Zr1326     O1332   2.390       .  S
O1327      H1335   0.965       .  S
O1330      H1334   0.965       .  S
O1331      H1336   0.966       .  S
H1347      O3751   0.990       .  S
O1349     Zr1361   2.406       .  S
O1349      C1351   1.282       .  A
O1350     Zr1387   2.435       .  S
O1350      C1351   1.286       .  A
C1351      C4136   1.464   1_455  S
O1352     Zr1364   2.407       .  S
O1352      C1354   1.282       .  A
O1353     Zr1388   2.503       .  S
O1353      C1354   1.302       .  A
C1354      C1668   1.494       .  S
O1355     Zr1364   2.447       .  S
O1355      C1357   1.287       .  A
O1356     Zr1387   2.414       .  S
O1356      C1357   1.284       .  A
C1357      C1768   1.465       .  S
O1358     Zr1361   2.377       .  S
O1358      C1360   1.276       .  A
O1359     Zr1388   2.528       .  S
O1359      C1360   1.305       .  A
C1360      C1761   1.497       .  S
Zr1361     O3810   2.434   1_455  S
Zr1361     O1363   2.435       .  S
Zr1361     O1367   2.351       .  S
Zr1361     O1368   2.369       .  S
Zr1361     O1391   2.363       .  S
Zr1361     O1393   2.351       .  S
O1362     Zr3809   2.434       .  S
O1362      H1405   0.990       .  S
O1363      H1404   0.989       .  S
O1363      H1408   0.990       .  S
Zr1364     O1365   2.437       .  S
Zr1364     O1366   2.435       .  S
Zr1364     O1368   2.374       .  S
Zr1364     O1367   2.356       .  S
Zr1364     O1392   2.365       .  S
Zr1364     O1394   2.377       .  S
O1365      H1406   0.990       .  S
O1365      H1409   0.990       .  S
O1366      H1399   0.990       .  S
O1367     Zr1387   2.372       .  S
O1368     Zr1388   2.402       .  S
O1368      H1395   0.965       .  S
O1369     Zr1381   2.396       .  S
O1369      C1371   1.279       .  A
O1370     Zr1388   2.516       .  S
O1370      C1371   1.305       .  A
C1371      C1638   1.489       .  S
O1372     Zr1384   2.456       .  S
O1372      C1374   1.289       .  A
O1373     Zr1387   2.411       .  S
O1373      C1374   1.287       .  A
C1374      C1648   1.477       .  S
O1375     Zr1384   2.438       .  S
O1375      C1377   1.289       .  A
O1376     Zr1388   2.467       .  S
O1376      C1377   1.295       .  A
C1377      C1678   1.492       .  S
O1378     Zr1381   2.464       .  S
O1378      C1380   1.293       .  A
O1379     Zr1387   2.404       .  S
O1379      C1380   1.282       .  A
Zr1381     O1382   2.436   1_565  S
Zr1381     O1383   2.436       .  S
Zr1381     O1389   2.375       .  S
Zr1381     O1390   2.346       .  S
Zr1381     O1393   2.349       .  S
Zr1381     O1391   2.394       .  S
O1382      H1402   0.990   1_545  S
O1383      H1403   0.990       .  S
Zr1384     O1385   2.433       .  S
Zr1384     O1386   2.434       .  S
Zr1384     O1390   2.363       .  S
Zr1384     O1389   2.377       .  S
Zr1384     O1394   2.371       .  S
Zr1384     O1392   2.380       .  S
O1385      H1401   0.990       .  S
O1386      H1400   0.990       .  S
O1386      H1410   0.990       .  S
Zr1387     O1390   2.380       .  S
Zr1387     O1392   2.389       .  S
Zr1387     O1393   2.371       .  S
Zr1388     O1389   2.419       .  S
Zr1388     O1391   2.400       .  S
Zr1388     O1394   2.410       .  S
O1389      H1397   0.966       .  S
O1392      H1396   0.966       .  S
O1393      H1398   0.965       .  S
O1411     Zr1423   2.403       .  S
O1411      C1413   1.280       .  A
O1412     Zr1449   2.493       .  S
O1412      C1413   1.298       .  A
C1413      C1621   1.487       .  S
O1414     Zr1426   2.409       .  S
O1414      C1416   1.281       .  A
O1415     Zr1450   2.453       .  S
O1415      C1416   1.292       .  A
C1416      C1628   1.462       .  S
O1417     Zr1426   2.398       .  S
O1417      C1419   1.281       .  A
O1418     Zr1449   2.440       .  S
O1418      C1419   1.290       .  A
C1419      C1811   1.468       .  S
O1420     Zr1423   2.420       .  S
O1420      C1422   1.285       .  A
O1421     Zr1450   2.413       .  S
O1421      C1422   1.284       .  A
C1422      C1738   1.465       .  S
Zr1423     O1424   2.434       .  S
Zr1423     O1425   2.437       .  S
Zr1423     O1429   2.365       .  S
Zr1423     O1430   2.348       .  S
Zr1423     O1453   2.348       .  S
Zr1423     O1455   2.369       .  S
O1424      H1467   0.990       .  S
O1425      H1466   0.990       .  S
O1425      H1470   0.990       .  S
Zr1426     O1427   2.436       .  S
Zr1426     O1428   2.435       .  S
Zr1426     O1430   2.361       .  S
Zr1426     O1429   2.377       .  S
Zr1426     O1454   2.365       .  S
Zr1426     O1456   2.379       .  S
O1427      H1468   0.990       .  S
O1427      H1471   0.990       .  S
O1428      H1461   0.990       .  S
O1429     Zr1449   2.385       .  S
O1430     Zr1450   2.385       .  S
O1430      H1457   0.965       .  S
O1431     Zr1443   2.394       .  S
O1431      C1433   1.270       .  A
O1432     Zr1450   2.427       .  S
O1432      C1433   1.283       .  A
O1434     Zr1446   2.442       .  S
O1434      C1436   1.290       .  A
O1435     Zr1449   2.417       .  S
O1435      C1436   1.287       .  A
C1436      C1748   1.471       .  S
O1437     Zr1446   2.500       .  S
O1437      C1439   1.299       .  A
O1438     Zr1450   2.448       .  S
O1438      C1439   1.294       .  A
C1439      C1641   1.507       .  S
O1440     Zr1443   2.415       .  S
O1440      C1442   1.272       .  A
O1441     Zr1449   2.467       .  S
O1441      C1442   1.286       .  A
C1442      C1651   1.491       .  S
Zr1443     O1445   2.443       .  S
Zr1443     O1451   2.355       .  S
Zr1443     O1452   2.348       .  S
Zr1443     O1455   2.377       .  S
Zr1443     O1453   2.363       .  S
O1444      H1464   0.990       .  S
O1444      H1469   0.990       .  S
O1445      H1465   0.990       .  S
Zr1446     O1447   2.433       .  S
Zr1446     O1448   2.433       .  S
Zr1446     O1452   2.383       .  S
Zr1446     O1451   2.352       .  S
Zr1446     O1456   2.371       .  S
Zr1446     O1454   2.380       .  S
O1447      H1463   0.990       .  S
O1448      H1462   0.990       .  S
O1448      H1472   0.990       .  S
Zr1449     O1452   2.407       .  S
Zr1449     O1454   2.419       .  S
Zr1449     O1455   2.388       .  S
Zr1450     O1451   2.390       .  S
Zr1450     O1453   2.378       .  S
Zr1450     O1456   2.389       .  S
O1451      H1459   0.962       .  S
O1454      H1458   0.966       .  S
O1455      H1460   0.965       .  S
O1473     Zr1485   2.483       .  S
O1473      C1475   1.296       .  A
O1474     Zr1511   2.431       .  S
O1474      C1475   1.291       .  A
C1475      C1711   1.499       .  S
O1476     Zr1488   2.391       .  S
O1476      C1478   1.275       .  A
O1477     Zr1512   2.467       .  S
O1477      C1478   1.293       .  A
C1478      C1698   1.469       .  S
O1479     Zr1488   2.419       .  S
O1479      C1481   1.277       .  A
O1480     Zr1511   2.447       .  S
O1480      C1481   1.285       .  A
C1481      C4046   1.480   1_455  S
O1482     Zr1485   2.486       .  S
O1482      C1484   1.297       .  A
O1483     Zr1512   2.428       .  S
O1483      C1484   1.287       .  A
C1484      C1671   1.494       .  S
Zr1485     O1486   2.434       .  S
Zr1485     O1487   2.434       .  S
Zr1485     O1491   2.364       .  S
Zr1485     O1492   2.384       .  S
Zr1485     O1515   2.373       .  S
Zr1485     O1517   2.395       .  S
O1486      H1529   0.990       .  S
O1487      H1528   0.990       .  S
O1487      H1532   0.990       .  S
Zr1488     O3937   2.442   1_455  S
Zr1488     O1490   2.442       .  S
Zr1488     O1492   2.371       .  S
Zr1488     O1491   2.352       .  S
Zr1488     O1516   2.362       .  S
Zr1488     O1518   2.367       .  S
O1489     Zr3936   2.442       .  S
O1489      H1530   0.990       .  S
O1489      H1533   0.990       .  S
O1490      H1523   0.989       .  S
O1491     Zr1511   2.385       .  S
O1492     Zr1512   2.396       .  S
O1492      H1519   0.966       .  S
O1493     Zr1505   2.487       .  S
O1493      C1495   1.297       .  A
O1494     Zr1512   2.418       .  S
O1494      C1495   1.285       .  A
C1495      C1608   1.484       .  S
O1496     Zr1508   2.406       .  S
O1496      C1498   1.281       .  A
O1497     Zr1511   2.450       .  S
O1497      C1498   1.291       .  A
C1498      C1658   1.472       .  S
O1499     Zr1508   2.377       .  S
O1499      C1501   1.276       .  A
O1500     Zr1512   2.462       .  S
O1500      C1501   1.292       .  A
C1501      C1631   1.466       .  S
O1502     Zr1505   2.490       .  S
O1502      C1504   1.297       .  A
O1503     Zr1511   2.436       .  S
O1503      C1504   1.292       .  A
C1504      C1618   1.502       .  S
Zr1505     O1506   2.437       .  S
Zr1505     O1507   2.435       .  S
Zr1505     O1513   2.383       .  S
Zr1505     O1514   2.366       .  S
Zr1505     O1517   2.392       .  S
Zr1505     O1515   2.379       .  S
O1506      H1526   0.990       .  S
O1506      H1531   0.990       .  S
O1507      H1527   0.990       .  S
Zr1508     O1509   2.434       .  S
Zr1508     O1510   2.435       .  S
Zr1508     O1514   2.342       .  S
Zr1508     O1513   2.367       .  S
Zr1508     O1518   2.370       .  S
Zr1508     O1516   2.356       .  S
O1509      H1525   0.990       .  S
O1510      H1524   0.990       .  S
O1510      H1534   0.990       .  S
Zr1511     O1514   2.375       .  S
Zr1511     O1516   2.381       .  S
Zr1511     O1517   2.415       .  S
Zr1512     O1513   2.398       .  S
Zr1512     O1515   2.404       .  S
Zr1512     O1518   2.372       .  S
O1513      H1521   0.966       .  S
O1516      H1520   0.965       .  S
O1517      H1522   0.966       .  S
O1535     Zr1547   2.460       .  S
O1535      C1537   1.290       .  A
O1536     Zr1573   2.430       .  S
O1536      C1537   1.287       .  A
C1537      C1731   1.476       .  S
O1538     Zr1550   2.411       .  S
O1538      C1540   1.283       .  A
O1539     Zr1574   2.489       .  S
O1539      C1540   1.299       .  A
C1540      C1611   1.482       .  S
O1541     Zr1550   2.448       .  S
O1541      C1543   1.289       .  A
O1542     Zr1573   2.408       .  S
O1542      C1543   1.284       .  A
C1543      C1828   1.487       .  S
O1544     Zr1547   2.434       .  S
O1544      C1546   1.289       .  A
O1545     Zr1574   2.466       .  S
O1545      C1546   1.295       .  A
C1546      C1681   1.492       .  S
Zr1547     O1548   2.434       .  S
Zr1547     O1549   2.435       .  S
Zr1547     O1553   2.377       .  S
Zr1547     O1554   2.369       .  S
Zr1547     O1577   2.377       .  S
Zr1547     O1579   2.361       .  S
O1548      H1591   0.990       .  S
O1549      H1590   0.990       .  S
O1549      H1594   0.990       .  S
Zr1550     O1551   2.434       .  S
Zr1550     O1552   2.434       .  S
Zr1550     O1554   2.377       .  S
Zr1550     O1553   2.372       .  S
Zr1550     O1578   2.361       .  S
Zr1550     O1580   2.379       .  S
O1551      H1592   0.990       .  S
O1551      H1595   0.990       .  S
O1552      H1585   0.990       .  S
O1553     Zr1573   2.381       .  S
O1554     Zr1574   2.413       .  S
O1554      H1581   0.965       .  S
O1555     Zr1567   2.382       .  S
O1555      C1557   1.276       .  A
O1556     Zr1574   2.523       .  S
O1556      C1557   1.306       .  A
C1557      C1721   1.488       .  S
O1558     Zr1570   2.422       .  S
O1558      C1560   1.286       .  A
O1559     Zr1573   2.424       .  S
O1559      C1560   1.285       .  A
C1560      C1691   1.466       .  S
O1561     Zr1570   2.399       .  S
O1561      C1563   1.280       .  A
O1562     Zr1574   2.509       .  S
O1562      C1563   1.304       .  A
C1563      C1821   1.507       .  S
O1564     Zr1567   2.434       .  S
O1564      C1566   1.288       .  A
O1565     Zr1573   2.413       .  S
O1565      C1566   1.283       .  A
Zr1567     O1568   2.436       .  S
Zr1567     O1569   2.434   1_565  S
Zr1567     O1575   2.381       .  S
Zr1567     O1576   2.344       .  S
Zr1567     O1579   2.349       .  S
Zr1567     O1577   2.371       .  S
O1568      H1588   0.990       .  S
O1568      H1593   0.990       .  S
O1569      H1589   0.990   1_545  S
Zr1570     O1571   2.435       .  S
Zr1570     O1572   2.435       .  S
Zr1570     O1576   2.355       .  S
Zr1570     O1575   2.366       .  S
Zr1570     O1580   2.369       .  S
Zr1570     O1578   2.351       .  S
O1571      H1587   0.990       .  S
O1572      H1586   0.990       .  S
O1572      H1596   0.990       .  S
Zr1573     O1576   2.377       .  S
Zr1573     O1578   2.384       .  S
Zr1573     O1579   2.380       .  S
Zr1574     O1575   2.399       .  S
Zr1574     O1577   2.405       .  S
Zr1574     O1580   2.400       .  S
O1575      H1583   0.966       .  S
O1578      H1582   0.965       .  S
O1579      H1584   0.966       .  S
C1597      C1598   1.405       .  A
C1597      C1602   1.383       .  A
C1597      F1604   1.353       .  S
C1598      C3929   1.480       .  S
C1598      C1599   1.406       .  A
C1599      C1600   1.408       .  A
C1599      F1606   1.357       .  S
C1600      C1601   1.416       .  A
C1600      F1605   1.357       .  S
C1601      C1602   1.407       .  A
C1602      F1603   1.359       .  S
C1607      C1608   1.410       .  A
C1607      C1612   1.411       .  A
C1607      F1614   1.358       .  S
C1608      C1609   1.402       .  A
C1609      C1610   1.400       .  A
C1609      F1616   1.358       .  S
C1610      C1611   1.409       .  A
C1610      F1615   1.358       .  S
C1611      C1612   1.406       .  A
C1612      F1613   1.357       .  S
C1617      C1618   1.410       .  A
C1617      C1622   1.397       .  A
C1617      F1624   1.355       .  S
C1618      C1619   1.413       .  A
C1619      C1620   1.417       .  A
C1619      F1626   1.357       .  S
C1620      C1621   1.410       .  A
C1620      F1625   1.357       .  S
C1621      C1622   1.404       .  A
C1622      F1623   1.359       .  S
C1627      C2240   1.399   1_554  A
C1627      C1632   1.394       .  A
C1627      F1634   1.358       .  S
C1628      C2239   1.399       .  A
C1628      C1629   1.406       .  A
C1629      C2242   1.400       .  A
C1629      F1636   1.358       .  S
C1630      C2241   1.400   1_554  A
C1630      C1631   1.402       .  A
C1630      F1635   1.355       .  S
C1631      C1632   1.410       .  A
C1632      F1633   1.359       .  S
C1637      C1638   1.411       .  A
C1637      C2254   1.414   1_554  A
C1637      F1644   1.358       .  S
C1638      C1639   1.406   1_554  A
C1639      C2252   1.406       .  A
C1639      F1646   1.358       .  S
C1640      C2251   1.406       .  A
C1640      F1645   1.358       .  S
C1642      C2249   1.414       .  A
C1647      C1648   1.396       .  A
C1647      F1654   1.360       .  S
C1649      C1650   1.413       .  A
C1650      C1651   1.409       .  A
C1650      F1655   1.357       .  S
C1651      C1652   1.411       .  A
C1652      F1653   1.348       .  S
C1657      C1658   1.405       .  A
C1657      C1662   1.402       .  A
C1657      F1664   1.358       .  S
C1658      C1659   1.408       .  A
C1659      C1660   1.396       .  A
C1659      F1666   1.358       .  S
C1660      C1661   1.401       .  A
C1660      F1665   1.358       .  S
C1661      C1662   1.407       .  A
C1667      C1668   1.412       .  A
C1667      C1672   1.402       .  A
C1667      F1674   1.358       .  S
C1668      C1669   1.407       .  A
C1669      C1670   1.412       .  A
C1669      F1676   1.354       .  S
C1670      C1671   1.413       .  A
C1670      F1675   1.358       .  S
C1671      C1672   1.404       .  A
C1672      F1673   1.358       .  S
C1677      C1678   1.407       .  A
C1677      C1682   1.396       .  A
C1677      F1684   1.358       .  S
C1678      C1679   1.409       .  A
C1679      C1680   1.413       .  A
C1679      F1686   1.355       .  S
C1680      C1681   1.410       .  A
C1680      F1685   1.357       .  S
C1681      C1682   1.408       .  A
C1682      F1683   1.359       .  S
C1687      C1688   1.405       .  A
C1687      C1692   1.407       .  A
C1687      F1694   1.357       .  S
C1688      C3799   1.464       .  S
C1688      C1689   1.404       .  A
C1689      C1690   1.382       .  A
C1689      F1696   1.359       .  S
C1690      C1691   1.401       .  A
C1690      F1695   1.359       .  S
C1691      C1692   1.408       .  A
C1692      F1693   1.356       .  S
C1697      C1698   1.402       .  A
C1697      C2314   1.399   1_554  A
C1697      F1704   1.356       .  S
C1698      C4147   1.408       .  A
C1699      C4146   1.408       .  A
C1699      C1700   1.402       .  A
C1699      F1706   1.358       .  S
C1700      C2313   1.405   1_554  A
C1700      F1705   1.358       .  S
C1701      C2312   1.405       .  A
C1701      C4150   1.405       .  A
C1702      C2309   1.399       .  A
C1702      C4149   1.405   1_455  A
C1702      F1703   1.355       .  S
C1707      C1708   1.408       .  A
C1707      C1712   1.416       .  A
C1707      F1714   1.357       .  S
C1708      C1709   1.405       .  A
C1709      C4158   1.396       .  A
C1709      F1716   1.359       .  S
C1710      C4157   1.396       .  A
C1710      C1711   1.409   1_655  A
C1710      F1715   1.356       .  S
C1711      C4160   1.414       .  A
C1712      C4159   1.414       .  A
C1712      F1713   1.357       .  S
C1717      C1722   1.407       .  A
C1719      C2332   1.413       .  A
C1720      C2331   1.413   1_554  A
C1720      C1721   1.410       .  A
C1720      F1725   1.358       .  S
C1721      C1722   1.409   1_554  A
C1722      F1723   1.358       .  S
C1727      C1732   1.397       .  A
C1727      F1734   1.358       .  S
C1728      C1729   1.411       .  A
C1729      C1730   1.409       .  A
C1729      F1736   1.357       .  S
C1730      F1735   1.357       .  S
C1731      C1732   1.396       .  A
C1732      F1733   1.358       .  S
C1737      C1738   1.404       .  A
C1737      C1742   1.384       .  A
C1737      F1744   1.359       .  S
C1738      C1739   1.405       .  A
C1739      C1740   1.402       .  A
C1739      F1746   1.358       .  S
C1740      C1741   1.407       .  A
C1740      F1745   1.355       .  S
C1741      C3740   1.467   1_455  S
C1741      C1742   1.403       .  A
C1742      F1743   1.359       .  S
C1747      C1748   1.406       .  A
C1747      C1752   1.399       .  A
C1747      F1754   1.356       .  S
C1748      C1749   1.404       .  A
C1749      C1750   1.391       .  A
C1749      F1756   1.358       .  S
C1750      C1751   1.406       .  A
C1750      F1755   1.358       .  S
C1751      C1752   1.406       .  A
C1752      F1753   1.358       .  S
C1757      C1758   1.400       .  A
C1757      C4822   1.390       .  A
C1757      F1764   1.359       .  S
C1758      C1759   1.417       .  A
C1759      C4820   1.423       .  A
C1759      F1766   1.357       .  S
C1760      C4819   1.423   1_454  A
C1760      C1761   1.410       .  A
C1760      F1765   1.356       .  S
C1761      C1762   1.411   1_455  A
C1762      C4817   1.390       .  A
C1762      F1763   1.356   1_655  S
C1767      C4216   1.404       .  A
C1767      C1772   1.398       .  A
C1767      F1774   1.358       .  S
C1768      C4215   1.404   1_455  A
C1768      C1769   1.402       .  A
C1769      C1770   1.400       .  A
C1769      F1776   1.357       .  S
C1770      C4219   1.405   1_455  A
C1770      F1775   1.358       .  S
C1771      C4218   1.405       .  A
C1771      C1772   1.403       .  A
C1772      F1773   1.358       .  S
C1777      C1778   1.402       .  A
C1777      C1782   1.378       .  A
C1777      F1784   1.359       .  S
C1778      C1779   1.401       .  A
C1779      C1780   1.392       .  A
C1779      F1786   1.358       .  S
C1780      C1781   1.401       .  A
C1781      C1782   1.398       .  A
C1782      F1783   1.360       .  S
C1787      C1788   1.414       .  A
C1787      C1792   1.394       .  A
C1787      F1794   1.358       .  S
C1788      C1789   1.401       .  A
C1789      C1790   1.389       .  A
C1789      F1796   1.358       .  S
C1790      C1791   1.413       .  A
C1790      F1795   1.358       .  S
C1791      C1792   1.401       .  A
C1792      F1793   1.358       .  S
C1797      C1798   1.390       .  A
C1797      C1802   1.384       .  A
C1797      F1804   1.359       .  S
C1798      C3698   1.438   1_455  S
C1798      C1799   1.403       .  A
C1799      C1800   1.390       .  A
C1799      F1806   1.359   1_455  S
C1800      C1801   1.403       .  A
C1800      F1805   1.358       .  S
C1801      C1802   1.416       .  A
C1802      F1803   1.358       .  S
C1807      C1808   1.402       .  A
C1807      C1812   1.398       .  A
C1807      F1814   1.358       .  S
C1808      C1809   1.397       .  A
C1809      C1810   1.389       .  A
C1809      F1816   1.359       .  S
C1810      C1811   1.410       .  A
C1810      F1815   1.359       .  S
C1811      C1812   1.405       .  A
C1812      F1813   1.355       .  S
C1817      C1818   1.421       .  A
C1817      C1822   1.407       .  A
C1817      F1824   1.358       .  S
C1818      C2431   1.399       .  A
C1819      C2430   1.399   1_554  A
C1819      C1820   1.408       .  A
C1819      F1826   1.357       .  S
C1820      C1821   1.424       .  A
C1820      F1825   1.357       .  S
C1821      C2434   1.403   1_554  A
C1822      C2433   1.403       .  A
C1822      F1823   1.357       .  S
C1827      C1828   1.410       .  A
C1827      C1832   1.403       .  A
C1827      F1834   1.358       .  S
C1828      C1829   1.410       .  A
C1829      C1830   1.389       .  A
C1829      F1836   1.358       .  S
C1830      C1831   1.411       .  A
C1830      F1835   1.359       .  S
C1831      C1832   1.411       .  A
C1832      F1833   1.358       .  S
O1837     Zr1849   2.451       .  S
O1837      C1839   1.289       .  A
O1838     Zr1875   2.398       .  S
O1838      C1839   1.282       .  A
C1839      C2443   1.489       .  S
O1840     Zr1852   2.375       .  S
O1840      C1842   1.274       .  A
O1841     Zr1876   2.523       .  S
O1841      C1842   1.304       .  A
C1842      C2430   1.498       .  S
O1843     Zr1852   2.365       .  S
O1843      C1845   1.275       .  A
O1844     Zr1875   2.411       .  S
O1844      C1845   1.282       .  A
C1845      C2390   1.437       .  S
O1846     Zr1849   2.410       .  S
O1846      C1848   1.282       .  A
O1847     Zr1876   2.428       .  S
O1847      C1848   1.289       .  A
C1848      C2420   1.449       .  S
Zr1849     O1850   2.434       .  S
Zr1849     O1851   2.436       .  S
Zr1849     O1855   2.351       .  S
Zr1849     O1856   2.378       .  S
Zr1849     O1879   2.362       .  S
Zr1849     O1881   2.367       .  S
O1850      H1893   0.990       .  S
O1851      H1892   0.990       .  S
O1851      H1896   0.990       .  S
Zr1852     O1853   2.436       .  S
Zr1852     O1854   2.435       .  S
Zr1852     O1856   2.346       .  S
Zr1852     O1855   2.359       .  S
Zr1852     O1880   2.344       .  S
Zr1852     O1882   2.369       .  S
O1853      H1894   0.990       .  S
O1853      H1897   0.990       .  S
O1854      H1887   0.990       .  S
O1855     Zr1875   2.374       .  S
O1856     Zr1876   2.394       .  S
O1856      H1883   0.966       .  S
O1857     Zr1869   2.409       .  S
O1857      C1859   1.283       .  A
O1858     Zr1876   2.424       .  S
O1858      C1859   1.290       .  A
C1859      C2400   1.471       .  S
O1860     Zr1872   2.401       .  S
O1860      C1862   1.280       .  A
O1861     Zr1875   2.400       .  S
O1861      C1862   1.281       .  A
C1862      C4858   1.438       .  S
O1863     Zr1872   2.380       .  S
O1863      C1865   1.275       .  A
O1864     Zr1876   2.516       .  S
O1864      C1865   1.304       .  A
C1865      C2370   1.481       .  S
O1866     Zr1869   2.444       .  S
O1866      C1868   1.288       .  A
O1867     Zr1875   2.417       .  S
O1867      C1868   1.285       .  A
C1868      C2383   1.467       .  S
Zr1869     O1870   2.436       .  S
Zr1869     O1871   2.434       .  S
Zr1869     O1877   2.374       .  S
Zr1869     O1878   2.357       .  S
Zr1869     O1881   2.365       .  S
Zr1869     O1879   2.363       .  S
O1870      H1890   0.990       .  S
O1870      H1895   0.990       .  S
O1871      H1891   0.990       .  S
Zr1872     O1873   2.433       .  S
Zr1872     O1874   2.436       .  S
Zr1872     O1878   2.356       .  S
Zr1872     O1877   2.361       .  S
Zr1872     O1882   2.382       .  S
Zr1872     O1880   2.345       .  S
O1873      H4337   0.990       .  S
O1874      H1888   0.989       .  S
O1874      H1898   0.990       .  S
Zr1875     O1878   2.374       .  S
Zr1875     O1880   2.374       .  S
Zr1875     O1881   2.377       .  S
Zr1876     O1877   2.401       .  S
Zr1876     O1879   2.407       .  S
Zr1876     O1882   2.372       .  S
O1877      H1885   0.965       .  S
O1880      H1884   0.965       .  S
O1881      H1886   0.966       .  S
H1889      O4321   0.990       .  S
O1899     Zr1911   2.402       .  S
O1899      C1901   1.282       .  A
O1900     Zr1937   2.433       .  S
O1900      C1901   1.290       .  A
C1901      C2403   1.471       .  S
O1902     Zr1914   2.432       .  S
O1902      C1904   1.288       .  A
O1903     Zr1938   2.409       .  S
O1903      C1904   1.282       .  A
C1904      C4801   1.467       .  S
O1905     Zr1914   2.410       .  S
O1905      C1907   1.282       .  A
O1906     Zr1937   2.485       .  S
O1906      C1907   1.297       .  A
C1907      C2320   1.484       .  S
O1908     Zr1911   2.424       .  S
O1908      C1910   1.284       .  A
O1909     Zr1938   2.461       .  S
O1909      C1910   1.295       .  A
C1910      C2313   1.477       .  S
Zr1911     O1912   2.434       .  S
Zr1911     O1913   2.434       .  S
Zr1911     O1917   2.386       .  S
Zr1911     O1918   2.363       .  S
Zr1911     O1941   2.382       .  S
Zr1911     O1943   2.367       .  S
O1912      H1955   0.990       .  S
O1913      H1954   0.990       .  S
O1913      H1958   0.990       .  S
Zr1914     O1915   2.435       .  S
Zr1914     O1916   2.434       .  S
Zr1914     O1918   2.345       .  S
Zr1914     O1917   2.368       .  S
Zr1914     O1942   2.372       .  S
Zr1914     O1944   2.352       .  S
O1915      H1956   0.990       .  S
O1915      H4407   0.990       .  S
O1916      H1949   0.990       .  S
O1917     Zr1937   2.395       .  S
O1918     Zr1938   2.388       .  S
O1918      H1945   0.964       .  S
O1919     Zr1931   2.470       .  S
O1919      C1921   1.291       .  A
O1920     Zr1938   2.464       .  S
O1920      C1921   1.295       .  A
C1921      C2330   1.505       .  S
O1922     Zr1934   2.404       .  S
O1922      C1924   1.273       .  A
O1923     Zr1937   2.475       .  S
O1923      C1924   1.290       .  A
C1924      C2340   1.499       .  S
O1925     Zr1934   2.371       .  S
O1925      C1927   1.275       .  A
O1926     Zr1938   2.403       .  S
O1926      C1927   1.280       .  A
O1928     Zr1931   2.434       .  S
O1928      C1930   1.289       .  A
O1929     Zr1937   2.420       .  S
O1929      C1930   1.287       .  A
C1930      C2363   1.472       .  S
Zr1931     O1932   2.437       .  S
Zr1931     O1933   2.434       .  S
Zr1931     O1939   2.362       .  S
Zr1931     O1940   2.375       .  S
Zr1931     O1943   2.371       .  S
Zr1931     O1941   2.378       .  S
O1932      H1952   0.990       .  S
O1932      H1957   0.990       .  S
O1933      H1953   0.990       .  S
Zr1934     O1936   2.436       .  S
Zr1934     O1940   2.341       .  S
Zr1934     O1939   2.359       .  S
Zr1934     O1944   2.355       .  S
Zr1934     O1942   2.351       .  S
O1936      H1950   0.990       .  S
O1936      H1960   0.990       .  S
Zr1937     O1940   2.393       .  S
Zr1937     O1942   2.386       .  S
Zr1937     O1943   2.416       .  S
Zr1938     O1939   2.393       .  S
Zr1938     O1941   2.383       .  S
Zr1938     O1944   2.390       .  S
O1939      H1947   0.965       .  S
O1942      H1946   0.965       .  S
O1943      H1948   0.966       .  S
H1959      O4363   0.990       .  S
O1961     Zr1973   2.406       .  S
O1961      C1963   1.282       .  A
O1962     Zr1999   2.435       .  S
O1962      C1963   1.286       .  A
C1963      C4748   1.464   1_455  S
O1964     Zr1976   2.407       .  S
O1964      C1966   1.282       .  A
O1965     Zr2000   2.503       .  S
O1965      C1966   1.302       .  A
C1966      C2280   1.494       .  S
O1967     Zr1976   2.447       .  S
O1967      C1969   1.287       .  A
O1968     Zr1999   2.414       .  S
O1968      C1969   1.284       .  A
C1969      C2380   1.465       .  S
O1970     Zr1973   2.377       .  S
O1970      C1972   1.276       .  A
O1971     Zr2000   2.528       .  S
O1971      C1972   1.305       .  A
C1972      C2373   1.497       .  S
Zr1973     O4422   2.434   1_455  S
Zr1973     O1975   2.435       .  S
Zr1973     O1979   2.351       .  S
Zr1973     O1980   2.369       .  S
Zr1973     O2003   2.363       .  S
Zr1973     O2005   2.351       .  S
O1974     Zr4421   2.434       .  S
O1974      H2017   0.990       .  S
O1975      H2016   0.989       .  S
O1975      H2020   0.990       .  S
Zr1976     O1977   2.437       .  S
Zr1976     O1978   2.435       .  S
Zr1976     O1980   2.374       .  S
Zr1976     O1979   2.356       .  S
Zr1976     O2004   2.365       .  S
Zr1976     O2006   2.377       .  S
O1977      H2018   0.990       .  S
O1977      H2021   0.990       .  S
O1978      H2011   0.990       .  S
O1979     Zr1999   2.372       .  S
O1980     Zr2000   2.402       .  S
O1980      H2007   0.965       .  S
O1981     Zr1993   2.396       .  S
O1981      C1983   1.279       .  A
O1982     Zr2000   2.516       .  S
O1982      C1983   1.305       .  A
C1983      C2250   1.489       .  S
O1984     Zr1996   2.456       .  S
O1984      C1986   1.289       .  A
O1985     Zr1999   2.411       .  S
O1985      C1986   1.287       .  A
C1986      C2260   1.477       .  S
O1987     Zr1996   2.438       .  S
O1987      C1989   1.289       .  A
O1988     Zr2000   2.467       .  S
O1988      C1989   1.295       .  A
C1989      C2290   1.492       .  S
O1990     Zr1993   2.464       .  S
O1990      C1992   1.293       .  A
O1991     Zr1999   2.404       .  S
O1991      C1992   1.282       .  A
Zr1993     O1994   2.436   1_565  S
Zr1993     O1995   2.436       .  S
Zr1993     O2001   2.375       .  S
Zr1993     O2002   2.346       .  S
Zr1993     O2005   2.349       .  S
Zr1993     O2003   2.394       .  S
O1994      H2014   0.990   1_545  S
O1995      H2015   0.990       .  S
Zr1996     O1997   2.433       .  S
Zr1996     O1998   2.434       .  S
Zr1996     O2002   2.363       .  S
Zr1996     O2001   2.377       .  S
Zr1996     O2006   2.371       .  S
Zr1996     O2004   2.380       .  S
O1997      H2013   0.990       .  S
O1998      H2012   0.990       .  S
O1998      H2022   0.990       .  S
Zr1999     O2002   2.380       .  S
Zr1999     O2004   2.389       .  S
Zr1999     O2005   2.371       .  S
Zr2000     O2001   2.419       .  S
Zr2000     O2003   2.400       .  S
Zr2000     O2006   2.410       .  S
O2001      H2009   0.966       .  S
O2004      H2008   0.966       .  S
O2005      H2010   0.965       .  S
O2023     Zr2035   2.403       .  S
O2023      C2025   1.280       .  A
O2024     Zr2061   2.493       .  S
O2024      C2025   1.298       .  A
C2025      C2233   1.487       .  S
O2026     Zr2038   2.409       .  S
O2026      C2028   1.281       .  A
O2027     Zr2062   2.453       .  S
O2027      C2028   1.292       .  A
C2028      C2240   1.462       .  S
O2029     Zr2038   2.398       .  S
O2029      C2031   1.281       .  A
O2030     Zr2061   2.440       .  S
O2030      C2031   1.290       .  A
C2031      C2423   1.468       .  S
O2032     Zr2035   2.420       .  S
O2032      C2034   1.285       .  A
O2033     Zr2062   2.413       .  S
O2033      C2034   1.284       .  A
C2034      C2350   1.465       .  S
Zr2035     O2036   2.434       .  S
Zr2035     O2037   2.437       .  S
Zr2035     O2041   2.365       .  S
Zr2035     O2042   2.348       .  S
Zr2035     O2065   2.348       .  S
Zr2035     O2067   2.369       .  S
O2036      H2079   0.990       .  S
O2037      H2078   0.990       .  S
O2037      H2082   0.990       .  S
Zr2038     O2039   2.436       .  S
Zr2038     O2040   2.435       .  S
Zr2038     O2042   2.361       .  S
Zr2038     O2041   2.377       .  S
Zr2038     O2066   2.365       .  S
Zr2038     O2068   2.379       .  S
O2039      H2080   0.990       .  S
O2039      H2083   0.990       .  S
O2040      H2073   0.990       .  S
O2041     Zr2061   2.385       .  S
O2042     Zr2062   2.385       .  S
O2042      H2069   0.965       .  S
O2043     Zr2055   2.394       .  S
O2043      C2045   1.270       .  A
O2044     Zr2062   2.427       .  S
O2044      C2045   1.283       .  A
O2046     Zr2058   2.442       .  S
O2046      C2048   1.290       .  A
O2047     Zr2061   2.417       .  S
O2047      C2048   1.287       .  A
C2048      C2360   1.471       .  S
O2049     Zr2058   2.500       .  S
O2049      C2051   1.299       .  A
O2050     Zr2062   2.448       .  S
O2050      C2051   1.294       .  A
C2051      C2253   1.507       .  S
O2052     Zr2055   2.415       .  S
O2052      C2054   1.272       .  A
O2053     Zr2061   2.467       .  S
O2053      C2054   1.286       .  A
C2054      C2263   1.491       .  S
Zr2055     O2057   2.443       .  S
Zr2055     O2063   2.355       .  S
Zr2055     O2064   2.348       .  S
Zr2055     O2067   2.377       .  S
Zr2055     O2065   2.363       .  S
O2056      H2076   0.990       .  S
O2056      H2081   0.990       .  S
O2057      H2077   0.990       .  S
Zr2058     O2059   2.433       .  S
Zr2058     O2060   2.433       .  S
Zr2058     O2064   2.383       .  S
Zr2058     O2063   2.352       .  S
Zr2058     O2068   2.371       .  S
Zr2058     O2066   2.380       .  S
O2059      H2075   0.990       .  S
O2060      H2074   0.990       .  S
O2060      H2084   0.990       .  S
Zr2061     O2064   2.407       .  S
Zr2061     O2066   2.419       .  S
Zr2061     O2067   2.388       .  S
Zr2062     O2063   2.390       .  S
Zr2062     O2065   2.378       .  S
Zr2062     O2068   2.389       .  S
O2063      H2071   0.962       .  S
O2066      H2070   0.966       .  S
O2067      H2072   0.965       .  S
O2085     Zr2097   2.483       .  S
O2085      C2087   1.296       .  A
O2086     Zr2123   2.431       .  S
O2086      C2087   1.291       .  A
C2087      C2323   1.499       .  S
O2088     Zr2100   2.391       .  S
O2088      C2090   1.275       .  A
O2089     Zr2124   2.467       .  S
O2089      C2090   1.293       .  A
C2090      C2310   1.469       .  S
O2091     Zr2100   2.419       .  S
O2091      C2093   1.277       .  A
O2092     Zr2123   2.447       .  S
O2092      C2093   1.285       .  A
C2093      C4658   1.480   1_455  S
O2094     Zr2097   2.486       .  S
O2094      C2096   1.297       .  A
O2095     Zr2124   2.428       .  S
O2095      C2096   1.287       .  A
C2096      C2283   1.494       .  S
Zr2097     O2098   2.434       .  S
Zr2097     O2099   2.434       .  S
Zr2097     O2103   2.364       .  S
Zr2097     O2104   2.384       .  S
Zr2097     O2127   2.373       .  S
Zr2097     O2129   2.395       .  S
O2098      H2141   0.990       .  S
O2099      H2140   0.990       .  S
O2099      H2144   0.990       .  S
Zr2100     O4549   2.442   1_455  S
Zr2100     O2102   2.442       .  S
Zr2100     O2104   2.371       .  S
Zr2100     O2103   2.352       .  S
Zr2100     O2128   2.362       .  S
Zr2100     O2130   2.367       .  S
O2101     Zr4548   2.442       .  S
O2101      H2142   0.990       .  S
O2101      H2145   0.990       .  S
O2102      H2135   0.989       .  S
O2103     Zr2123   2.385       .  S
O2104     Zr2124   2.396       .  S
O2104      H2131   0.966       .  S
O2105     Zr2117   2.487       .  S
O2105      C2107   1.297       .  A
O2106     Zr2124   2.418       .  S
O2106      C2107   1.285       .  A
C2107      C2220   1.484       .  S
O2108     Zr2120   2.406       .  S
O2108      C2110   1.281       .  A
O2109     Zr2123   2.450       .  S
O2109      C2110   1.291       .  A
C2110      C2270   1.472       .  S
O2111     Zr2120   2.377       .  S
O2111      C2113   1.276       .  A
O2112     Zr2124   2.462       .  S
O2112      C2113   1.292       .  A
C2113      C2243   1.466       .  S
O2114     Zr2117   2.490       .  S
O2114      C2116   1.297       .  A
O2115     Zr2123   2.436       .  S
O2115      C2116   1.292       .  A
C2116      C2230   1.502       .  S
Zr2117     O2118   2.437       .  S
Zr2117     O2119   2.435       .  S
Zr2117     O2125   2.383       .  S
Zr2117     O2126   2.366       .  S
Zr2117     O2129   2.392       .  S
Zr2117     O2127   2.379       .  S
O2118      H2138   0.990       .  S
O2118      H2143   0.990       .  S
O2119      H2139   0.990       .  S
Zr2120     O2121   2.434       .  S
Zr2120     O2122   2.435       .  S
Zr2120     O2126   2.342       .  S
Zr2120     O2125   2.367       .  S
Zr2120     O2130   2.370       .  S
Zr2120     O2128   2.356       .  S
O2121      H2137   0.990       .  S
O2122      H2136   0.990       .  S
O2122      H2146   0.990       .  S
Zr2123     O2126   2.375       .  S
Zr2123     O2128   2.381       .  S
Zr2123     O2129   2.415       .  S
Zr2124     O2125   2.398       .  S
Zr2124     O2127   2.404       .  S
Zr2124     O2130   2.372       .  S
O2125      H2133   0.966       .  S
O2128      H2132   0.965       .  S
O2129      H2134   0.966       .  S
O2147     Zr2159   2.460       .  S
O2147      C2149   1.290       .  A
O2148     Zr2185   2.430       .  S
O2148      C2149   1.287       .  A
C2149      C2343   1.476       .  S
O2150     Zr2162   2.411       .  S
O2150      C2152   1.283       .  A
O2151     Zr2186   2.489       .  S
O2151      C2152   1.299       .  A
C2152      C2223   1.482       .  S
O2153     Zr2162   2.448       .  S
O2153      C2155   1.289       .  A
O2154     Zr2185   2.408       .  S
O2154      C2155   1.284       .  A
C2155      C2440   1.487       .  S
O2156     Zr2159   2.434       .  S
O2156      C2158   1.289       .  A
O2157     Zr2186   2.466       .  S
O2157      C2158   1.295       .  A
C2158      C2293   1.492       .  S
Zr2159     O2160   2.434       .  S
Zr2159     O2161   2.435       .  S
Zr2159     O2165   2.377       .  S
Zr2159     O2166   2.369       .  S
Zr2159     O2189   2.377       .  S
Zr2159     O2191   2.361       .  S
O2160      H2203   0.990       .  S
O2161      H2202   0.990       .  S
O2161      H2206   0.990       .  S
Zr2162     O2163   2.434       .  S
Zr2162     O2164   2.434       .  S
Zr2162     O2166   2.377       .  S
Zr2162     O2165   2.372       .  S
Zr2162     O2190   2.361       .  S
Zr2162     O2192   2.379       .  S
O2163      H2204   0.990       .  S
O2163      H2207   0.990       .  S
O2164      H2197   0.990       .  S
O2165     Zr2185   2.381       .  S
O2166     Zr2186   2.413       .  S
O2166      H2193   0.965       .  S
O2167     Zr2179   2.382       .  S
O2167      C2169   1.276       .  A
O2168     Zr2186   2.523       .  S
O2168      C2169   1.306       .  A
C2169      C2333   1.488       .  S
O2170     Zr2182   2.422       .  S
O2170      C2172   1.286       .  A
O2171     Zr2185   2.424       .  S
O2171      C2172   1.285       .  A
C2172      C2303   1.466       .  S
O2173     Zr2182   2.399       .  S
O2173      C2175   1.280       .  A
O2174     Zr2186   2.509       .  S
O2174      C2175   1.304       .  A
C2175      C2433   1.507       .  S
O2176     Zr2179   2.434       .  S
O2176      C2178   1.288       .  A
O2177     Zr2185   2.413       .  S
O2177      C2178   1.283       .  A
Zr2179     O2180   2.436       .  S
Zr2179     O2181   2.434   1_565  S
Zr2179     O2187   2.381       .  S
Zr2179     O2188   2.344       .  S
Zr2179     O2191   2.349       .  S
Zr2179     O2189   2.371       .  S
O2180      H2200   0.990       .  S
O2180      H2205   0.990       .  S
O2181      H2201   0.990   1_545  S
Zr2182     O2183   2.435       .  S
Zr2182     O2184   2.435       .  S
Zr2182     O2188   2.355       .  S
Zr2182     O2187   2.366       .  S
Zr2182     O2192   2.369       .  S
Zr2182     O2190   2.351       .  S
O2183      H2199   0.990       .  S
O2184      H2198   0.990       .  S
O2184      H2208   0.990       .  S
Zr2185     O2188   2.377       .  S
Zr2185     O2190   2.384       .  S
Zr2185     O2191   2.380       .  S
Zr2186     O2187   2.399       .  S
Zr2186     O2189   2.405       .  S
Zr2186     O2192   2.400       .  S
O2187      H2195   0.966       .  S
O2190      H2194   0.965       .  S
O2191      H2196   0.966       .  S
C2209      C2210   1.405       .  A
C2209      C2214   1.383       .  A
C2209      F2216   1.353       .  S
C2210      C4541   1.480       .  S
C2210      C2211   1.406       .  A
C2211      C2212   1.408       .  A
C2211      F2218   1.357       .  S
C2212      C2213   1.416       .  A
C2212      F2217   1.357       .  S
C2213      C2214   1.407       .  A
C2214      F2215   1.359       .  S
C2219      C2220   1.410       .  A
C2219      C2224   1.411       .  A
C2219      F2226   1.358       .  S
C2220      C2221   1.402       .  A
C2221      C2222   1.400       .  A
C2221      F2228   1.358       .  S
C2222      C2223   1.409       .  A
C2222      F2227   1.358       .  S
C2223      C2224   1.406       .  A
C2224      F2225   1.357       .  S
C2229      C2230   1.410       .  A
C2229      C2234   1.397       .  A
C2229      F2236   1.355       .  S
C2230      C2231   1.413       .  A
C2231      C2232   1.417       .  A
C2231      F2238   1.357       .  S
C2232      C2233   1.410       .  A
C2232      F2237   1.357       .  S
C2233      C2234   1.404       .  A
C2234      F2235   1.359       .  S
C2239      C2244   1.394       .  A
C2239      F2246   1.358       .  S
C2240      C2241   1.406       .  A
C2241      F2248   1.358       .  S
C2242      C2243   1.402       .  A
C2242      F2247   1.355       .  S
C2243      C2244   1.410       .  A
C2244      F2245   1.359       .  S
C2249      C2250   1.411       .  A
C2249      F2256   1.358       .  S
C2250      C2251   1.406       .  A
C2251      F2258   1.358       .  S
C2252      F2257   1.358       .  S
C2259      C2260   1.396       .  A
C2259      F2266   1.360       .  S
C2261      C2262   1.413       .  A
C2262      C2263   1.409       .  A
C2262      F2267   1.357       .  S
C2263      C2264   1.411       .  A
C2264      F2265   1.348       .  S
C2269      C2270   1.405       .  A
C2269      C2274   1.402       .  A
C2269      F2276   1.358       .  S
C2270      C2271   1.408       .  A
C2271      C2272   1.396       .  A
C2271      F2278   1.358       .  S
C2272      C2273   1.401       .  A
C2272      F2277   1.358       .  S
C2273      C2274   1.407       .  A
C2279      C2280   1.412       .  A
C2279      C2284   1.402       .  A
C2279      F2286   1.358       .  S
C2280      C2281   1.407       .  A
C2281      C2282   1.412       .  A
C2281      F2288   1.354       .  S
C2282      C2283   1.413       .  A
C2282      F2287   1.358       .  S
C2283      C2284   1.404       .  A
C2284      F2285   1.358       .  S
C2289      C2290   1.407       .  A
C2289      C2294   1.396       .  A
C2289      F2296   1.358       .  S
C2290      C2291   1.409       .  A
C2291      C2292   1.413       .  A
C2291      F2298   1.355       .  S
C2292      C2293   1.410       .  A
C2292      F2297   1.357       .  S
C2293      C2294   1.408       .  A
C2294      F2295   1.359       .  S
C2299      C2300   1.405       .  A
C2299      C2304   1.407       .  A
C2299      F2306   1.357       .  S
C2300      C4411   1.464       .  S
C2300      C2301   1.404       .  A
C2301      C2302   1.382       .  A
C2301      F2308   1.359       .  S
C2302      C2303   1.401       .  A
C2302      F2307   1.359       .  S
C2303      C2304   1.408       .  A
C2304      F2305   1.356       .  S
C2309      C2310   1.402       .  A
C2309      F2316   1.356       .  S
C2310      C4759   1.408       .  A
C2311      C4758   1.408       .  A
C2311      C2312   1.402       .  A
C2311      F2318   1.358       .  S
C2312      F2317   1.358       .  S
C2313      C4762   1.405       .  A
C2314      C4761   1.405   1_455  A
C2314      F2315   1.355       .  S
C2319      C2320   1.408       .  A
C2319      C2324   1.416       .  A
C2319      F2326   1.357       .  S
C2320      C2321   1.405       .  A
C2321      C4770   1.396       .  A
C2321      F2328   1.359       .  S
C2322      C4769   1.396       .  A
C2322      C2323   1.409   1_655  A
C2322      F2327   1.356       .  S
C2323      C4772   1.414       .  A
C2324      C4771   1.414       .  A
C2324      F2325   1.357       .  S
C2329      C2334   1.407       .  A
C2332      C2333   1.410       .  A
C2332      F2337   1.358       .  S
C2333      C2334   1.409       .  A
C2334      F2335   1.358       .  S
C2339      C2344   1.397       .  A
C2339      F2346   1.358       .  S
C2340      C2341   1.411       .  A
C2341      C2342   1.409       .  A
C2341      F2348   1.357       .  S
C2342      F2347   1.357       .  S
C2343      C2344   1.396       .  A
C2344      F2345   1.358       .  S
C2349      C2350   1.404       .  A
C2349      C2354   1.384       .  A
C2349      F2356   1.359       .  S
C2350      C2351   1.405       .  A
C2351      C2352   1.402       .  A
C2351      F2358   1.358       .  S
C2352      C2353   1.407       .  A
C2352      F2357   1.355       .  S
C2353      C4352   1.467   1_455  S
C2353      C2354   1.403       .  A
C2354      F2355   1.359       .  S
C2359      C2360   1.406       .  A
C2359      C2364   1.399       .  A
C2359      F2366   1.356       .  S
C2360      C2361   1.404       .  A
C2361      C2362   1.391       .  A
C2361      F2368   1.358       .  S
C2362      C2363   1.406       .  A
C2362      F2367   1.358       .  S
C2363      C2364   1.406       .  A
C2364      F2365   1.358       .  S
C2369      C2370   1.400   1_554  A
C2369      C4210   1.390       .  A
C2369      F2376   1.359   1_554  S
C2370      C2371   1.417       .  A
C2371      C4208   1.423   1_556  A
C2371      F2378   1.357       .  S
C2372      C4207   1.423   1_455  A
C2372      C2373   1.410       .  A
C2372      F2377   1.356       .  S
C2373      C2374   1.411   1_455  A
C2374      C4205   1.390       .  A
C2374      F2375   1.356   1_655  S
C2379      C4828   1.404       .  A
C2379      C2384   1.398       .  A
C2379      F2386   1.358       .  S
C2380      C4827   1.404   1_455  A
C2380      C2381   1.402       .  A
C2381      C2382   1.400       .  A
C2381      F2388   1.357       .  S
C2382      C4831   1.405   1_455  A
C2382      F2387   1.358       .  S
C2383      C4830   1.405       .  A
C2383      C2384   1.403       .  A
C2384      F2385   1.358       .  S
C2389      C2390   1.402       .  A
C2389      C2394   1.378       .  A
C2389      F2396   1.359       .  S
C2390      C2391   1.401       .  A
C2391      C2392   1.392       .  A
C2391      F2398   1.358       .  S
C2392      C2393   1.401       .  A
C2393      C2394   1.398       .  A
C2394      F2395   1.360       .  S
C2399      C2400   1.414       .  A
C2399      C2404   1.394       .  A
C2399      F2406   1.358       .  S
C2400      C2401   1.401       .  A
C2401      C2402   1.389       .  A
C2401      F2408   1.358       .  S
C2402      C2403   1.413       .  A
C2402      F2407   1.358       .  S
C2403      C2404   1.401       .  A
C2404      F2405   1.358       .  S
C2409      C2410   1.390       .  A
C2409      C2414   1.384       .  A
C2409      F2416   1.359       .  S
C2410      C4310   1.438   1_455  S
C2410      C2411   1.403       .  A
C2411      C2412   1.390       .  A
C2411      F2418   1.359   1_455  S
C2412      C2413   1.403       .  A
C2412      F2417   1.358       .  S
C2413      C2414   1.416       .  A
C2414      F2415   1.358       .  S
C2419      C2420   1.402       .  A
C2419      C2424   1.398       .  A
C2419      F2426   1.358       .  S
C2420      C2421   1.397       .  A
C2421      C2422   1.389       .  A
C2421      F2428   1.359       .  S
C2422      C2423   1.410       .  A
C2422      F2427   1.359       .  S
C2423      C2424   1.405       .  A
C2424      F2425   1.355       .  S
C2429      C2430   1.421       .  A
C2429      C2434   1.407       .  A
C2429      F2436   1.358       .  S
C2431      C2432   1.408       .  A
C2431      F2438   1.357       .  S
C2432      C2433   1.424       .  A
C2432      F2437   1.357       .  S
C2434      F2435   1.357       .  S
C2439      C2440   1.410       .  A
C2439      C2444   1.403       .  A
C2439      F2446   1.358       .  S
C2440      C2441   1.410       .  A
C2441      C2442   1.389       .  A
C2441      F2448   1.358       .  S
C2442      C2443   1.411       .  A
C2442      F2447   1.359       .  S
C2443      C2444   1.411       .  A
C2444      F2445   1.358       .  S
O2449     Zr2461   2.451       .  S
O2449      C2451   1.289       .  A
O2450     Zr2487   2.398       .  S
O2450      C2451   1.282       .  A
C2451      C3055   1.489       .  S
O2452     Zr2464   2.375       .  S
O2452      C2454   1.274       .  A
O2453     Zr2488   2.523       .  S
O2453      C2454   1.304       .  A
C2454      C3042   1.498       .  S
O2455     Zr2464   2.365       .  S
O2455      C2457   1.275       .  A
O2456     Zr2487   2.411       .  S
O2456      C2457   1.282       .  A
C2457      C3002   1.437       .  S
O2458     Zr2461   2.410       .  S
O2458      C2460   1.282       .  A
O2459     Zr2488   2.428       .  S
O2459      C2460   1.289       .  A
C2460      C3032   1.449       .  S
Zr2461     O2462   2.434       .  S
Zr2461     O2463   2.436       .  S
Zr2461     O2467   2.351       .  S
Zr2461     O2468   2.378       .  S
Zr2461     O2491   2.362       .  S
Zr2461     O2493   2.367       .  S
O2462      H2505   0.990       .  S
O2463      H2504   0.990       .  S
O2463      H2508   0.990       .  S
Zr2464     O2465   2.436       .  S
Zr2464     O2466   2.435       .  S
Zr2464     O2468   2.346       .  S
Zr2464     O2467   2.359       .  S
Zr2464     O2492   2.344       .  S
Zr2464     O2494   2.369       .  S
O2465      H2506   0.990       .  S
O2465      H2509   0.990       .  S
O2466      H2499   0.990       .  S
O2467     Zr2487   2.374       .  S
O2468     Zr2488   2.394       .  S
O2468      H2495   0.966       .  S
O2469     Zr2481   2.409       .  S
O2469      C2471   1.283       .  A
O2470     Zr2488   2.424       .  S
O2470      C2471   1.290       .  A
C2471      C3012   1.471       .  S
O2472     Zr2484   2.401       .  S
O2472      C2474   1.280       .  A
O2473     Zr2487   2.400       .  S
O2473      C2474   1.281       .  A
O2475     Zr2484   2.380       .  S
O2475      C2477   1.275       .  A
O2476     Zr2488   2.516       .  S
O2476      C2477   1.304       .  A
C2477      C2982   1.481       .  S
O2478     Zr2481   2.444       .  S
O2478      C2480   1.288       .  A
O2479     Zr2487   2.417       .  S
O2479      C2480   1.285       .  A
C2480      C2995   1.467       .  S
Zr2481     O2482   2.436       .  S
Zr2481     O2483   2.434       .  S
Zr2481     O2489   2.374       .  S
Zr2481     O2490   2.357       .  S
Zr2481     O2493   2.365       .  S
Zr2481     O2491   2.363       .  S
O2482      H2502   0.990       .  S
O2482      H2507   0.990       .  S
O2483      H2503   0.990       .  S
Zr2484     O2485   2.433   1_655  S
Zr2484     O2486   2.436       .  S
Zr2484     O2490   2.356       .  S
Zr2484     O2489   2.361       .  S
Zr2484     O2494   2.382       .  S
Zr2484     O2492   2.345       .  S
O2486      H2500   0.989       .  S
O2486      H2510   0.990       .  S
Zr2487     O2490   2.374       .  S
Zr2487     O2492   2.374       .  S
Zr2487     O2493   2.377       .  S
Zr2488     O2489   2.401       .  S
Zr2488     O2491   2.407       .  S
Zr2488     O2494   2.372       .  S
O2489      H2497   0.965       .  S
O2492      H2496   0.965       .  S
O2493      H2498   0.966       .  S
O2511     Zr2523   2.402       .  S
O2511      C2513   1.282       .  A
O2512     Zr2549   2.433       .  S
O2512      C2513   1.290       .  A
C2513      C3015   1.471       .  S
O2514     Zr2526   2.432       .  S
O2514      C2516   1.288       .  A
O2515     Zr2550   2.409       .  S
O2515      C2516   1.282       .  A
O2517     Zr2526   2.410       .  S
O2517      C2519   1.282       .  A
O2518     Zr2549   2.485       .  S
O2518      C2519   1.297       .  A
C2519      C2932   1.484       .  S
O2520     Zr2523   2.424       .  S
O2520      C2522   1.284       .  A
O2521     Zr2550   2.461       .  S
O2521      C2522   1.295       .  A
C2522      C2925   1.477       .  S
Zr2523     O2524   2.434       .  S
Zr2523     O2525   2.434       .  S
Zr2523     O2529   2.386       .  S
Zr2523     O2530   2.363       .  S
Zr2523     O2553   2.382       .  S
Zr2523     O2555   2.367       .  S
O2524      H2567   0.990       .  S
O2525      H2566   0.990       .  S
O2525      H2570   0.990       .  S
Zr2526     O2527   2.435   1_655  S
Zr2526     O2528   2.434       .  S
Zr2526     O2530   2.345       .  S
Zr2526     O2529   2.368       .  S
Zr2526     O2554   2.372       .  S
Zr2526     O2556   2.352       .  S
O2527      H2568   0.990       .  S
O2528      H2561   0.990       .  S
O2529     Zr2549   2.395       .  S
O2530     Zr2550   2.388       .  S
O2530      H2557   0.964       .  S
O2531     Zr2543   2.470       .  S
O2531      C2533   1.291       .  A
O2532     Zr2550   2.464       .  S
O2532      C2533   1.295       .  A
C2533      C2942   1.505   1_545  S
O2534     Zr2546   2.404       .  S
O2534      C2536   1.273       .  A
O2535     Zr2549   2.475       .  S
O2535      C2536   1.290       .  A
C2536      C2952   1.499       .  S
O2537     Zr2546   2.371       .  S
O2537      C2539   1.275       .  A
O2538     Zr2550   2.403       .  S
O2538      C2539   1.280       .  A
C2539      C4229   1.429   1_545  S
O2540     Zr2543   2.434       .  S
O2540      C2542   1.289       .  A
O2541     Zr2549   2.420       .  S
O2541      C2542   1.287       .  A
C2542      C2975   1.472       .  S
Zr2543     O2544   2.437       .  S
Zr2543     O2545   2.434       .  S
Zr2543     O2551   2.362       .  S
Zr2543     O2552   2.375       .  S
Zr2543     O2555   2.371       .  S
Zr2543     O2553   2.378       .  S
O2544      H2564   0.990       .  S
O2544      H2569   0.990       .  S
O2545      H2565   0.990       .  S
Zr2546     O3771   2.434   1_545  S
Zr2546     O2548   2.436       .  S
Zr2546     O2552   2.341       .  S
Zr2546     O2551   2.359       .  S
Zr2546     O2556   2.355       .  S
Zr2546     O2554   2.351       .  S
O2547     Zr3770   2.434       .  S
O2547      H3787   0.990       .  S
O2548      H2562   0.990       .  S
O2548      H2572   0.990       .  S
Zr2549     O2552   2.393       .  S
Zr2549     O2554   2.386       .  S
Zr2549     O2555   2.416       .  S
Zr2550     O2551   2.393       .  S
Zr2550     O2553   2.383       .  S
Zr2550     O2556   2.390       .  S
O2551      H2559   0.965       .  S
O2554      H2558   0.965       .  S
O2555      H2560   0.966       .  S
H2563      O3771   0.990       .  S
O2573     Zr2585   2.406       .  S
O2573      C2575   1.282       .  A
O2574     Zr2611   2.435       .  S
O2574      C2575   1.286       .  A
O2576     Zr2588   2.407       .  S
O2576      C2578   1.282       .  A
O2577     Zr2612   2.503       .  S
O2577      C2578   1.302       .  A
C2578      C2892   1.494       .  S
O2579     Zr2588   2.447       .  S
O2579      C2581   1.287       .  A
O2580     Zr2611   2.414       .  S
O2580      C2581   1.284       .  A
C2581      C2992   1.465       .  S
O2582     Zr2585   2.377       .  S
O2582      C2584   1.276       .  A
O2583     Zr2612   2.528       .  S
O2583      C2584   1.305       .  A
C2584      C2985   1.497       .  S
Zr2585     O2587   2.435       .  S
Zr2585     O2591   2.351       .  S
Zr2585     O2592   2.369       .  S
Zr2585     O2615   2.363       .  S
Zr2585     O2617   2.351       .  S
O2586      H2629   0.990       .  S
O2587      H2628   0.989       .  S
O2587      H2632   0.990       .  S
Zr2588     O2589   2.437       .  S
Zr2588     O2590   2.435       .  S
Zr2588     O2592   2.374       .  S
Zr2588     O2591   2.356       .  S
Zr2588     O2616   2.365       .  S
Zr2588     O2618   2.377       .  S
O2589      H2630   0.990       .  S
O2589      H2633   0.990       .  S
O2590      H2623   0.990       .  S
O2591     Zr2611   2.372       .  S
O2592     Zr2612   2.402       .  S
O2592      H2619   0.965       .  S
O2593     Zr2605   2.396       .  S
O2593      C2595   1.279       .  A
O2594     Zr2612   2.516       .  S
O2594      C2595   1.305       .  A
C2595      C2862   1.489       .  S
O2596     Zr2608   2.456       .  S
O2596      C2598   1.289       .  A
O2597     Zr2611   2.411       .  S
O2597      C2598   1.287       .  A
C2598      C2872   1.477       .  S
O2599     Zr2608   2.438       .  S
O2599      C2601   1.289       .  A
O2600     Zr2612   2.467       .  S
O2600      C2601   1.295       .  A
C2601      C2902   1.492       .  S
O2602     Zr2605   2.464       .  S
O2602      C2604   1.293       .  A
O2603     Zr2611   2.404       .  S
O2603      C2604   1.282       .  A
C2604      C4109   1.470       .  S
Zr2605     O2606   2.436       .  S
Zr2605     O2607   2.436       .  S
Zr2605     O2613   2.375       .  S
Zr2605     O2614   2.346       .  S
Zr2605     O2617   2.349       .  S
Zr2605     O2615   2.394       .  S
O2606      H2626   0.990       .  S
O2606      H3855   0.990       .  S
O2607      H2627   0.990       .  S
Zr2608     O2609   2.433       .  S
Zr2608     O2610   2.434       .  S
Zr2608     O2614   2.363       .  S
Zr2608     O2613   2.377       .  S
Zr2608     O2618   2.371       .  S
Zr2608     O2616   2.380       .  S
O2609      H2625   0.990       .  S
O2610      H2624   0.990       .  S
O2610      H2634   0.990       .  S
Zr2611     O2614   2.380       .  S
Zr2611     O2616   2.389       .  S
Zr2611     O2617   2.371       .  S
Zr2612     O2613   2.419       .  S
Zr2612     O2615   2.400       .  S
Zr2612     O2618   2.410       .  S
O2613      H2621   0.966       .  S
O2616      H2620   0.966       .  S
O2617      H2622   0.965       .  S
H2631      O3830   0.990       .  S
O2635     Zr2647   2.403       .  S
O2635      C2637   1.280       .  A
O2636     Zr2673   2.493       .  S
O2636      C2637   1.298       .  A
C2637      C2845   1.487       .  S
O2638     Zr2650   2.409       .  S
O2638      C2640   1.281       .  A
O2639     Zr2674   2.453       .  S
O2639      C2640   1.292       .  A
C2640      C2852   1.462       .  S
O2641     Zr2650   2.398       .  S
O2641      C2643   1.281       .  A
O2642     Zr2673   2.440       .  S
O2642      C2643   1.290       .  A
C2643      C3035   1.468       .  S
O2644     Zr2647   2.420       .  S
O2644      C2646   1.285       .  A
O2645     Zr2674   2.413       .  S
O2645      C2646   1.284       .  A
C2646      C2962   1.465       .  S
Zr2647     O2648   2.434       .  S
Zr2647     O2649   2.437       .  S
Zr2647     O2653   2.365       .  S
Zr2647     O2654   2.348       .  S
Zr2647     O2677   2.348       .  S
Zr2647     O2679   2.369       .  S
O2648      H2691   0.990       .  S
O2649      H2690   0.990       .  S
O2649      H2694   0.990       .  S
Zr2650     O2651   2.436       .  S
Zr2650     O2652   2.435       .  S
Zr2650     O2654   2.361       .  S
Zr2650     O2653   2.377       .  S
Zr2650     O2678   2.365       .  S
Zr2650     O2680   2.379       .  S
O2651      H2692   0.990       .  S
O2651      H2695   0.990       .  S
O2652      H2685   0.990       .  S
O2653     Zr2673   2.385       .  S
O2654     Zr2674   2.385       .  S
O2654      H2681   0.965       .  S
O2655     Zr2667   2.394       .  S
O2655      C2657   1.270       .  A
O2656     Zr2674   2.427       .  S
O2656      C2657   1.283       .  A
C2657      C4249   1.462   1_545  S
O2658     Zr2670   2.442       .  S
O2658      C2660   1.290       .  A
O2659     Zr2673   2.417       .  S
O2659      C2660   1.287       .  A
C2660      C2972   1.471       .  S
O2661     Zr2670   2.500       .  S
O2661      C2663   1.299       .  A
O2662     Zr2674   2.448       .  S
O2662      C2663   1.294       .  A
C2663      C2865   1.507       .  S
O2664     Zr2667   2.415       .  S
O2664      C2666   1.272       .  A
O2665     Zr2673   2.467       .  S
O2665      C2666   1.286       .  A
C2666      C2875   1.491       .  S
Zr2667     O3892   2.452   1_545  S
Zr2667     O2669   2.443       .  S
Zr2667     O2675   2.355       .  S
Zr2667     O2676   2.348       .  S
Zr2667     O2679   2.377       .  S
Zr2667     O2677   2.363       .  S
O2668     Zr3891   2.452       .  S
O2668      H2688   0.990       .  S
O2668      H2693   0.990       .  S
O2669      H2689   0.990       .  S
Zr2670     O2671   2.433       .  S
Zr2670     O2672   2.433       .  S
Zr2670     O2676   2.383       .  S
Zr2670     O2675   2.352       .  S
Zr2670     O2680   2.371       .  S
Zr2670     O2678   2.380       .  S
O2671      H2687   0.990       .  S
O2672      H2686   0.990       .  S
O2672      H2696   0.990       .  S
Zr2673     O2676   2.407       .  S
Zr2673     O2678   2.419       .  S
Zr2673     O2679   2.388       .  S
Zr2674     O2675   2.390       .  S
Zr2674     O2677   2.378       .  S
Zr2674     O2680   2.389       .  S
O2675      H2683   0.962       .  S
O2678      H2682   0.966       .  S
O2679      H2684   0.965       .  S
O2697     Zr2709   2.483       .  S
O2697      C2699   1.296       .  A
O2698     Zr2735   2.431       .  S
O2698      C2699   1.291       .  A
C2699      C2935   1.499       .  S
O2700     Zr2712   2.391       .  S
O2700      C2702   1.275       .  A
O2701     Zr2736   2.467       .  S
O2701      C2702   1.293       .  A
C2702      C2922   1.469       .  S
O2703     Zr2712   2.419       .  S
O2703      C2705   1.277       .  A
O2704     Zr2735   2.447       .  S
O2704      C2705   1.285       .  A
O2706     Zr2709   2.486       .  S
O2706      C2708   1.297       .  A
O2707     Zr2736   2.428       .  S
O2707      C2708   1.287       .  A
C2708      C2895   1.494       .  S
Zr2709     O2710   2.434       .  S
Zr2709     O2711   2.434       .  S
Zr2709     O2715   2.364       .  S
Zr2709     O2716   2.384       .  S
Zr2709     O2739   2.373       .  S
Zr2709     O2741   2.395       .  S
O2710      H2753   0.990       .  S
O2711      H2752   0.990       .  S
O2711      H2756   0.990       .  S
Zr2712     O2714   2.442       .  S
Zr2712     O2716   2.371       .  S
Zr2712     O2715   2.352       .  S
Zr2712     O2740   2.362       .  S
Zr2712     O2742   2.367       .  S
O2713      H2754   0.990       .  S
O2713      H2757   0.990       .  S
O2714      H2747   0.989       .  S
O2715     Zr2735   2.385       .  S
O2716     Zr2736   2.396       .  S
O2716      H2743   0.966       .  S
O2717     Zr2729   2.487       .  S
O2717      C2719   1.297       .  A
O2718     Zr2736   2.418       .  S
O2718      C2719   1.285       .  A
C2719      C2832   1.484       .  S
O2720     Zr2732   2.406       .  S
O2720      C2722   1.281       .  A
O2721     Zr2735   2.450       .  S
O2721      C2722   1.291       .  A
C2722      C2882   1.472       .  S
O2723     Zr2732   2.377       .  S
O2723      C2725   1.276       .  A
O2724     Zr2736   2.462       .  S
O2724      C2725   1.292       .  A
C2725      C2855   1.466       .  S
O2726     Zr2729   2.490       .  S
O2726      C2728   1.297       .  A
O2727     Zr2735   2.436       .  S
O2727      C2728   1.292       .  A
C2728      C2842   1.502       .  S
Zr2729     O2730   2.437       .  S
Zr2729     O2731   2.435       .  S
Zr2729     O2737   2.383       .  S
Zr2729     O2738   2.366       .  S
Zr2729     O2741   2.392       .  S
Zr2729     O2739   2.379       .  S
O2730      H2750   0.990       .  S
O2730      H2755   0.990       .  S
O2731      H2751   0.990       .  S
Zr2732     O2733   2.434       .  S
Zr2732     O2734   2.435       .  S
Zr2732     O2738   2.342       .  S
Zr2732     O2737   2.367       .  S
Zr2732     O2742   2.370       .  S
Zr2732     O2740   2.356       .  S
O2733      H2749   0.990       .  S
O2734      H2748   0.990       .  S
O2734      H2758   0.990       .  S
Zr2735     O2738   2.375       .  S
Zr2735     O2740   2.381       .  S
Zr2735     O2741   2.415       .  S
Zr2736     O2737   2.398       .  S
Zr2736     O2739   2.404       .  S
Zr2736     O2742   2.372       .  S
O2737      H2745   0.966       .  S
O2740      H2744   0.965       .  S
O2741      H2746   0.966       .  S
O2759     Zr2771   2.460       .  S
O2759      C2761   1.290       .  A
O2760     Zr2797   2.430       .  S
O2760      C2761   1.287       .  A
C2761      C2955   1.476       .  S
O2762     Zr2774   2.411       .  S
O2762      C2764   1.283       .  A
O2763     Zr2798   2.489       .  S
O2763      C2764   1.299       .  A
C2764      C2835   1.482       .  S
O2765     Zr2774   2.448       .  S
O2765      C2767   1.289       .  A
O2766     Zr2797   2.408       .  S
O2766      C2767   1.284       .  A
C2767      C3052   1.487       .  S
O2768     Zr2771   2.434       .  S
O2768      C2770   1.289       .  A
O2769     Zr2798   2.466       .  S
O2769      C2770   1.295       .  A
C2770      C2905   1.492       .  S
Zr2771     O2772   2.434       .  S
Zr2771     O2773   2.435       .  S
Zr2771     O2777   2.377       .  S
Zr2771     O2778   2.369       .  S
Zr2771     O2801   2.377       .  S
Zr2771     O2803   2.361       .  S
O2772      H2815   0.990       .  S
O2773      H2814   0.990       .  S
O2773      H2818   0.990       .  S
Zr2774     O2775   2.434       .  S
Zr2774     O2776   2.434       .  S
Zr2774     O2778   2.377       .  S
Zr2774     O2777   2.372       .  S
Zr2774     O2802   2.361       .  S
Zr2774     O2804   2.379       .  S
O2775      H2816   0.990       .  S
O2775      H2819   0.990       .  S
O2776      H2809   0.990       .  S
O2777     Zr2797   2.381       .  S
O2778     Zr2798   2.413       .  S
O2778      H2805   0.965       .  S
O2779     Zr2791   2.382       .  S
O2779      C2781   1.276       .  A
O2780     Zr2798   2.523       .  S
O2780      C2781   1.306       .  A
C2781      C2945   1.488       .  S
O2782     Zr2794   2.422       .  S
O2782      C2784   1.286       .  A
O2783     Zr2797   2.424       .  S
O2783      C2784   1.285       .  A
C2784      C2915   1.466       .  S
O2785     Zr2794   2.399       .  S
O2785      C2787   1.280       .  A
O2786     Zr2798   2.509       .  S
O2786      C2787   1.304       .  A
C2787      C3045   1.507       .  S
O2788     Zr2791   2.434       .  S
O2788      C2790   1.288       .  A
O2789     Zr2797   2.413       .  S
O2789      C2790   1.283       .  A
C2790      C4049   1.489       .  S
Zr2791     O2792   2.436       .  S
Zr2791     O2793   2.434       .  S
Zr2791     O2799   2.381       .  S
Zr2791     O2800   2.344       .  S
Zr2791     O2803   2.349       .  S
Zr2791     O2801   2.371       .  S
O2792      H2812   0.990       .  S
O2792      H2817   0.990       .  S
O2793      H2813   0.990       .  S
Zr2794     O2795   2.435       .  S
Zr2794     O2796   2.435       .  S
Zr2794     O2800   2.355       .  S
Zr2794     O2799   2.366       .  S
Zr2794     O2804   2.369       .  S
Zr2794     O2802   2.351       .  S
O2795      H2811   0.990       .  S
O2796      H2810   0.990       .  S
O2796      H2820   0.990       .  S
Zr2797     O2800   2.377       .  S
Zr2797     O2802   2.384       .  S
Zr2797     O2803   2.380       .  S
Zr2798     O2799   2.399       .  S
Zr2798     O2801   2.405       .  S
Zr2798     O2804   2.400       .  S
O2799      H2807   0.966       .  S
O2802      H2806   0.965       .  S
O2803      H2808   0.966       .  S
C2821      C2822   1.405       .  A
C2821      C2826   1.383       .  A
C2821      F2828   1.353       .  S
C2822      C2823   1.406       .  A
C2823      C2824   1.408       .  A
C2823      F2830   1.357       .  S
C2824      C2825   1.416       .  A
C2824      F2829   1.357       .  S
C2825      C4014   1.489   1_545  S
C2825      C2826   1.407       .  A
C2826      F2827   1.359       .  S
C2831      C2832   1.410       .  A
C2831      C2836   1.411       .  A
C2831      F2838   1.358       .  S
C2832      C2833   1.402       .  A
C2833      C2834   1.400       .  A
C2833      F2840   1.358       .  S
C2834      C2835   1.409       .  A
C2834      F2839   1.358       .  S
C2835      C2836   1.406       .  A
C2836      F2837   1.357       .  S
C2841      C2842   1.410       .  A
C2841      C2846   1.397       .  A
C2841      F2848   1.355       .  S
C2842      C2843   1.413       .  A
C2843      C2844   1.417       .  A
C2843      F2850   1.357       .  S
C2844      C2845   1.410       .  A
C2844      F2849   1.357       .  S
C2845      C2846   1.404       .  A
C2846      F2847   1.359       .  S
C2851      C3464   1.399   1_554  A
C2851      C2856   1.394       .  A
C2851      F2858   1.358       .  S
C2852      C3463   1.399       .  A
C2852      C2853   1.406       .  A
C2853      C3466   1.400       .  A
C2853      F2860   1.358       .  S
C2854      C3465   1.400   1_554  A
C2854      C2855   1.402       .  A
C2854      F2859   1.355       .  S
C2855      C2856   1.410       .  A
C2856      F2857   1.359       .  S
C2861      C2862   1.411       .  A
C2861      C3478   1.414   1_554  A
C2861      F2868   1.358       .  S
C2862      C2863   1.406   1_554  A
C2863      C3476   1.406       .  A
C2863      F2870   1.358       .  S
C2864      C3475   1.406       .  A
C2864      C4089   1.413       .  A
C2864      F2869   1.358       .  S
C2865      C4088   1.413   1_545  A
C2865      C4090   1.411   1_545  A
C2866      C3473   1.414       .  A
C2866      C4089   1.411       .  A
C2866      F4091   1.357       .  S
F2867      C4090   1.357   1_545  S
C2871      C2872   1.396       .  A
C2871      C4100   1.384       .  A
C2871      F2878   1.360       .  S
C2872      C4097   1.411       .  A
C2873      C4096   1.411   1_545  A
C2873      C2874   1.413       .  A
C2873      F4104   1.357       .  S
C2874      C2875   1.409       .  A
C2874      F2879   1.357       .  S
C2875      C2876   1.411       .  A
C2876      C4095   1.384   1_545  A
C2876      F2877   1.348   1_545  S
F2880      C4097   1.357       .  S
C2881      C2882   1.405       .  A
C2881      C2886   1.402       .  A
C2881      F2888   1.358       .  S
C2882      C2883   1.408       .  A
C2883      C2884   1.396       .  A
C2883      F2890   1.358       .  S
C2884      C2885   1.401       .  A
C2884      F2889   1.358       .  S
C2885      C3828   1.470   1_545  S
C2885      C2886   1.407       .  A
C2886      F4111   1.358   1_545  S
F2887      C4110   1.358       .  S
C2891      C2892   1.412       .  A
C2891      C2896   1.402       .  A
C2891      F2898   1.358       .  S
C2892      C2893   1.407       .  A
C2893      C2894   1.412       .  A
C2893      F2900   1.354       .  S
C2894      C2895   1.413       .  A
C2894      F2899   1.358       .  S
C2895      C2896   1.404       .  A
C2896      F2897   1.358       .  S
C2901      C2902   1.407       .  A
C2901      C2906   1.396       .  A
C2901      F2908   1.358       .  S
C2902      C2903   1.409       .  A
C2903      C2904   1.413       .  A
C2903      F2910   1.355       .  S
C2904      C2905   1.410       .  A
C2904      F2909   1.357       .  S
C2905      C2906   1.408       .  A
C2906      F2907   1.359       .  S
C2911      C2912   1.405       .  A
C2911      C2916   1.407       .  A
C2911      F2918   1.357       .  S
C2912      C2913   1.404       .  A
C2913      C2914   1.382       .  A
C2913      F2920   1.359       .  S
C2914      C2915   1.401       .  A
C2914      F2919   1.359       .  S
C2915      C2916   1.408       .  A
C2916      F2917   1.356       .  S
C2921      C2922   1.402       .  A
C2921      C3538   1.399   1_554  A
C2921      F2928   1.356       .  S
C2923      C2924   1.402   1_455  A
C2923      F2930   1.358       .  S
C2924      C3537   1.405   1_554  A
C2924      F2929   1.358       .  S
C2925      C3536   1.405       .  A
C2926      C3533   1.399       .  A
C2926      F2927   1.355       .  S
C2931      C2932   1.408       .  A
C2931      C2936   1.416   1_655  A
C2931      F2938   1.357       .  S
C2932      C2933   1.405       .  A
C2933      F2940   1.359       .  S
C2934      C2935   1.409       .  A
C2934      F2939   1.356       .  S
C2936      F2937   1.357       .  S
C2941      C4778   1.410       .  A
C2941      C2946   1.407       .  A
C2941      F4172   1.358       .  S
C2942      C4777   1.410       .  A
C2942      C4167   1.412       .  A
C2943      C4166   1.412       .  A
C2943      C3556   1.413       .  A
C2943      F4174   1.358       .  S
C2944      C3555   1.413   1_554  A
C2944      C2945   1.410       .  A
C2944      F2949   1.358       .  S
C2945      C2946   1.409   1_554  A
C2946      F2947   1.358       .  S
F2948      C4165   1.358       .  S
F2950      C4167   1.358   1_545  S
C2951      C4176   1.419       .  A
C2951      C2956   1.397       .  A
C2951      F2958   1.358       .  S
C2952      C4175   1.419   1_545  A
C2952      C2953   1.411       .  A
C2953      C2954   1.409       .  A
C2953      F2960   1.357       .  S
C2954      C4179   1.407   1_545  A
C2954      F2959   1.357       .  S
C2955      C4178   1.407       .  A
C2955      C2956   1.396       .  A
C2956      F2957   1.358       .  S
C2961      C2962   1.404       .  A
C2961      C2966   1.384       .  A
C2961      F2968   1.359       .  S
C2962      C2963   1.405       .  A
C2963      C2964   1.402       .  A
C2963      F2970   1.358       .  S
C2964      C2965   1.407       .  A
C2964      F2969   1.355       .  S
C2965      C2966   1.403       .  A
C2966      F2967   1.359       .  S
C2971      C2972   1.406       .  A
C2971      C2976   1.399       .  A
C2971      F2978   1.356       .  S
C2972      C2973   1.404       .  A
C2973      C2974   1.391       .  A
C2973      F2980   1.358       .  S
C2974      C2975   1.406       .  A
C2974      F2979   1.358       .  S
C2975      C2976   1.406       .  A
C2976      F2977   1.358       .  S
C2981      C2982   1.400       .  A
C2981      F2988   1.359       .  S
C2982      C2983   1.417       .  A
C2983      F2990   1.357       .  S
C2984      C2985   1.410       .  A
C2984      F2989   1.356       .  S
C2985      C2986   1.411       .  A
C2986      F2987   1.356       .  S
C2991      C2996   1.398       .  A
C2991      F2998   1.358       .  S
C2992      C2993   1.402       .  A
C2993      C2994   1.400       .  A
C2993      F3000   1.357       .  S
C2994      F2999   1.358       .  S
C2995      C2996   1.403       .  A
C2996      F2997   1.358       .  S
C3001      C3002   1.402       .  A
C3001      C3006   1.378       .  A
C3001      F3008   1.359       .  S
C3002      C3003   1.401       .  A
C3003      C3004   1.392       .  A
C3003      F3010   1.358       .  S
C3004      C3005   1.401       .  A
C3004      F4233   1.356       .  S
C3005      C3763   1.429       .  S
C3005      C3006   1.398       .  A
C3006      F3007   1.360       .  S
F3009      C4228   1.356   1_545  S
C3011      C3012   1.414       .  A
C3011      C3016   1.394       .  A
C3011      F3018   1.358       .  S
C3012      C3013   1.401       .  A
C3013      C3014   1.389       .  A
C3013      F3020   1.358       .  S
C3014      C3015   1.413       .  A
C3014      F3019   1.358       .  S
C3015      C3016   1.401       .  A
C3016      F3017   1.358       .  S
C3021      C3022   1.390       .  A
C3021      C3026   1.384       .  A
C3021      F3028   1.359       .  S
C3022      C3023   1.403       .  A
C3023      C3024   1.390       .  A
C3023      F3030   1.359       .  S
C3024      C3025   1.403       .  A
C3024      F3029   1.358       .  S
C3025      C3881   1.462       .  S
C3025      C3026   1.416       .  A
C3026      F3027   1.358       .  S
C3031      C3032   1.402       .  A
C3031      C3036   1.398       .  A
C3031      F3038   1.358       .  S
C3032      C3033   1.397       .  A
C3033      C3034   1.389       .  A
C3033      F3040   1.359       .  S
C3034      C3035   1.410       .  A
C3034      F3039   1.359       .  S
C3035      C3036   1.405       .  A
C3036      F3037   1.355       .  S
C3041      C3042   1.421       .  A
C3041      C3046   1.407       .  A
C3041      F3048   1.358       .  S
C3042      C3655   1.399       .  A
C3043      C3654   1.399   1_554  A
C3043      C3044   1.408       .  A
C3043      F3050   1.357       .  S
C3044      C3045   1.424       .  A
C3044      F3049   1.357       .  S
C3045      C3658   1.403   1_554  A
C3046      C3657   1.403       .  A
C3046      F3047   1.357       .  S
C3051      C3052   1.410       .  A
C3051      C3056   1.403       .  A
C3051      F3058   1.358       .  S
C3052      C3053   1.410       .  A
C3053      C3054   1.389       .  A
C3053      F3060   1.358       .  S
C3054      C3055   1.411       .  A
C3054      F3059   1.359       .  S
C3055      C3056   1.411       .  A
C3056      F3057   1.358       .  S
O3061     Zr3073   2.451       .  S
O3061      C3063   1.289       .  A
O3062     Zr3099   2.398       .  S
O3062      C3063   1.282       .  A
C3063      C3667   1.489       .  S
O3064     Zr3076   2.375       .  S
O3064      C3066   1.274       .  A
O3065     Zr3100   2.523       .  S
O3065      C3066   1.304       .  A
C3066      C3654   1.498       .  S
O3067     Zr3076   2.365       .  S
O3067      C3069   1.275       .  A
O3068     Zr3099   2.411       .  S
O3068      C3069   1.282       .  A
C3069      C3614   1.437       .  S
O3070     Zr3073   2.410       .  S
O3070      C3072   1.282       .  A
O3071     Zr3100   2.428       .  S
O3071      C3072   1.289       .  A
C3072      C3644   1.449       .  S
Zr3073     O3074   2.434       .  S
Zr3073     O3075   2.436       .  S
Zr3073     O3079   2.351       .  S
Zr3073     O3080   2.378       .  S
Zr3073     O3103   2.362       .  S
Zr3073     O3105   2.367       .  S
O3074      H3117   0.990       .  S
O3075      H3116   0.990       .  S
O3075      H3120   0.990       .  S
Zr3076     O3077   2.436       .  S
Zr3076     O3078   2.435       .  S
Zr3076     O3080   2.346       .  S
Zr3076     O3079   2.359       .  S
Zr3076     O3104   2.344       .  S
Zr3076     O3106   2.369       .  S
O3077      H3118   0.990       .  S
O3077      H3121   0.990       .  S
O3078      H3111   0.990       .  S
O3079     Zr3099   2.374       .  S
O3080     Zr3100   2.394       .  S
O3080      H3107   0.966       .  S
O3081     Zr3093   2.409       .  S
O3081      C3083   1.283       .  A
O3082     Zr3100   2.424       .  S
O3082      C3083   1.290       .  A
C3083      C3624   1.471       .  S
O3084     Zr3096   2.401       .  S
O3084      C3086   1.280       .  A
O3085     Zr3099   2.400       .  S
O3085      C3086   1.281       .  A
O3087     Zr3096   2.380       .  S
O3087      C3089   1.275       .  A
O3088     Zr3100   2.516       .  S
O3088      C3089   1.304       .  A
C3089      C3594   1.481       .  S
O3090     Zr3093   2.444       .  S
O3090      C3092   1.288       .  A
O3091     Zr3099   2.417       .  S
O3091      C3092   1.285       .  A
C3092      C3607   1.467       .  S
Zr3093     O3094   2.436       .  S
Zr3093     O3095   2.434       .  S
Zr3093     O3101   2.374       .  S
Zr3093     O3102   2.357       .  S
Zr3093     O3105   2.365       .  S
Zr3093     O3103   2.363       .  S
O3094      H3114   0.990       .  S
O3094      H3119   0.990       .  S
O3095      H3115   0.990       .  S
Zr3096     O3097   2.433   1_655  S
Zr3096     O3098   2.436       .  S
Zr3096     O3102   2.356       .  S
Zr3096     O3101   2.361       .  S
Zr3096     O3106   2.382       .  S
Zr3096     O3104   2.345       .  S
O3098      H3112   0.989       .  S
O3098      H3122   0.990       .  S
Zr3099     O3102   2.374       .  S
Zr3099     O3104   2.374       .  S
Zr3099     O3105   2.377       .  S
Zr3100     O3101   2.401       .  S
Zr3100     O3103   2.407       .  S
Zr3100     O3106   2.372       .  S
O3101      H3109   0.965       .  S
O3104      H3108   0.965       .  S
O3105      H3110   0.966       .  S
O3123     Zr3135   2.402       .  S
O3123      C3125   1.282       .  A
O3124     Zr3161   2.433       .  S
O3124      C3125   1.290       .  A
C3125      C3627   1.471       .  S
O3126     Zr3138   2.432       .  S
O3126      C3128   1.288       .  A
O3127     Zr3162   2.409       .  S
O3127      C3128   1.282       .  A
O3129     Zr3138   2.410       .  S
O3129      C3131   1.282       .  A
O3130     Zr3161   2.485       .  S
O3130      C3131   1.297       .  A
C3131      C3544   1.484       .  S
O3132     Zr3135   2.424       .  S
O3132      C3134   1.284       .  A
O3133     Zr3162   2.461       .  S
O3133      C3134   1.295       .  A
C3134      C3537   1.477       .  S
Zr3135     O3136   2.434       .  S
Zr3135     O3137   2.434       .  S
Zr3135     O3141   2.386       .  S
Zr3135     O3142   2.363       .  S
Zr3135     O3165   2.382       .  S
Zr3135     O3167   2.367       .  S
O3136      H3179   0.990       .  S
O3137      H3178   0.990       .  S
O3137      H3182   0.990       .  S
Zr3138     O3139   2.435   1_655  S
Zr3138     O3140   2.434       .  S
Zr3138     O3142   2.345       .  S
Zr3138     O3141   2.368       .  S
Zr3138     O3166   2.372       .  S
Zr3138     O3168   2.352       .  S
O3139      H3180   0.990       .  S
O3140      H3173   0.990       .  S
O3141     Zr3161   2.395       .  S
O3142     Zr3162   2.388       .  S
O3142      H3169   0.964       .  S
O3143     Zr3155   2.470       .  S
O3143      C3145   1.291       .  A
O3144     Zr3162   2.464       .  S
O3144      C3145   1.295       .  A
C3145      C3554   1.505   1_545  S
O3146     Zr3158   2.404       .  S
O3146      C3148   1.273       .  A
O3147     Zr3161   2.475       .  S
O3147      C3148   1.290       .  A
C3148      C3564   1.499       .  S
O3149     Zr3158   2.371       .  S
O3149      C3151   1.275       .  A
O3150     Zr3162   2.403       .  S
O3150      C3151   1.280       .  A
C3151      C4841   1.429   1_545  S
O3152     Zr3155   2.434       .  S
O3152      C3154   1.289       .  A
O3153     Zr3161   2.420       .  S
O3153      C3154   1.287       .  A
C3154      C3587   1.472       .  S
Zr3155     O3156   2.437       .  S
Zr3155     O3157   2.434       .  S
Zr3155     O3163   2.362       .  S
Zr3155     O3164   2.375       .  S
Zr3155     O3167   2.371       .  S
Zr3155     O3165   2.378       .  S
O3156      H3176   0.990       .  S
O3156      H3181   0.990       .  S
O3157      H3177   0.990       .  S
Zr3158     O4383   2.434   1_545  S
Zr3158     O3160   2.436       .  S
Zr3158     O3164   2.341       .  S
Zr3158     O3163   2.359       .  S
Zr3158     O3168   2.355       .  S
Zr3158     O3166   2.351       .  S
O3159     Zr4382   2.434       .  S
O3159      H4399   0.990       .  S
O3160      H3174   0.990       .  S
O3160      H3184   0.990       .  S
Zr3161     O3164   2.393       .  S
Zr3161     O3166   2.386       .  S
Zr3161     O3167   2.416       .  S
Zr3162     O3163   2.393       .  S
Zr3162     O3165   2.383       .  S
Zr3162     O3168   2.390       .  S
O3163      H3171   0.965       .  S
O3166      H3170   0.965       .  S
O3167      H3172   0.966       .  S
H3175      O4383   0.990       .  S
O3185     Zr3197   2.406       .  S
O3185      C3187   1.282       .  A
O3186     Zr3223   2.435       .  S
O3186      C3187   1.286       .  A
O3188     Zr3200   2.407       .  S
O3188      C3190   1.282       .  A
O3189     Zr3224   2.503       .  S
O3189      C3190   1.302       .  A
C3190      C3504   1.494       .  S
O3191     Zr3200   2.447       .  S
O3191      C3193   1.287       .  A
O3192     Zr3223   2.414       .  S
O3192      C3193   1.284       .  A
C3193      C3604   1.465       .  S
O3194     Zr3197   2.377       .  S
O3194      C3196   1.276       .  A
O3195     Zr3224   2.528       .  S
O3195      C3196   1.305       .  A
C3196      C3597   1.497       .  S
Zr3197     O3199   2.435       .  S
Zr3197     O3203   2.351       .  S
Zr3197     O3204   2.369       .  S
Zr3197     O3227   2.363       .  S
Zr3197     O3229   2.351       .  S
O3198      H3241   0.990       .  S
O3199      H3240   0.989       .  S
O3199      H3244   0.990       .  S
Zr3200     O3201   2.437       .  S
Zr3200     O3202   2.435       .  S
Zr3200     O3204   2.374       .  S
Zr3200     O3203   2.356       .  S
Zr3200     O3228   2.365       .  S
Zr3200     O3230   2.377       .  S
O3201      H3242   0.990       .  S
O3201      H3245   0.990       .  S
O3202      H3235   0.990       .  S
O3203     Zr3223   2.372       .  S
O3204     Zr3224   2.402       .  S
O3204      H3231   0.965       .  S
O3205     Zr3217   2.396       .  S
O3205      C3207   1.279       .  A
O3206     Zr3224   2.516       .  S
O3206      C3207   1.305       .  A
C3207      C3474   1.489       .  S
O3208     Zr3220   2.456       .  S
O3208      C3210   1.289       .  A
O3209     Zr3223   2.411       .  S
O3209      C3210   1.287       .  A
C3210      C3484   1.477       .  S
O3211     Zr3220   2.438       .  S
O3211      C3213   1.289       .  A
O3212     Zr3224   2.467       .  S
O3212      C3213   1.295       .  A
C3213      C3514   1.492       .  S
O3214     Zr3217   2.464       .  S
O3214      C3216   1.293       .  A
O3215     Zr3223   2.404       .  S
O3215      C3216   1.282       .  A
C3216      C4721   1.470       .  S
Zr3217     O3218   2.436       .  S
Zr3217     O3219   2.436       .  S
Zr3217     O3225   2.375       .  S
Zr3217     O3226   2.346       .  S
Zr3217     O3229   2.349       .  S
Zr3217     O3227   2.394       .  S
O3218      H3238   0.990       .  S
O3218      H4467   0.990       .  S
O3219      H3239   0.990       .  S
Zr3220     O3221   2.433       .  S
Zr3220     O3222   2.434       .  S
Zr3220     O3226   2.363       .  S
Zr3220     O3225   2.377       .  S
Zr3220     O3230   2.371       .  S
Zr3220     O3228   2.380       .  S
O3221      H3237   0.990       .  S
O3222      H3236   0.990       .  S
O3222      H3246   0.990       .  S
Zr3223     O3226   2.380       .  S
Zr3223     O3228   2.389       .  S
Zr3223     O3229   2.371       .  S
Zr3224     O3225   2.419       .  S
Zr3224     O3227   2.400       .  S
Zr3224     O3230   2.410       .  S
O3225      H3233   0.966       .  S
O3228      H3232   0.966       .  S
O3229      H3234   0.965       .  S
H3243      O4442   0.990       .  S
O3247     Zr3259   2.403       .  S
O3247      C3249   1.280       .  A
O3248     Zr3285   2.493       .  S
O3248      C3249   1.298       .  A
C3249      C3457   1.487       .  S
O3250     Zr3262   2.409       .  S
O3250      C3252   1.281       .  A
O3251     Zr3286   2.453       .  S
O3251      C3252   1.292       .  A
C3252      C3464   1.462       .  S
O3253     Zr3262   2.398       .  S
O3253      C3255   1.281       .  A
O3254     Zr3285   2.440       .  S
O3254      C3255   1.290       .  A
C3255      C3647   1.468       .  S
O3256     Zr3259   2.420       .  S
O3256      C3258   1.285       .  A
O3257     Zr3286   2.413       .  S
O3257      C3258   1.284       .  A
C3258      C3574   1.465       .  S
Zr3259     O3260   2.434       .  S
Zr3259     O3261   2.437       .  S
Zr3259     O3265   2.365       .  S
Zr3259     O3266   2.348       .  S
Zr3259     O3289   2.348       .  S
Zr3259     O3291   2.369       .  S
O3260      H3303   0.990       .  S
O3261      H3302   0.990       .  S
O3261      H3306   0.990       .  S
Zr3262     O3263   2.436       .  S
Zr3262     O3264   2.435       .  S
Zr3262     O3266   2.361       .  S
Zr3262     O3265   2.377       .  S
Zr3262     O3290   2.365       .  S
Zr3262     O3292   2.379       .  S
O3263      H3304   0.990       .  S
O3263      H3307   0.990       .  S
O3264      H3297   0.990       .  S
O3265     Zr3285   2.385       .  S
O3266     Zr3286   2.385       .  S
O3266      H3293   0.965       .  S
O3267     Zr3279   2.394       .  S
O3267      C3269   1.270       .  A
O3268     Zr3286   2.427       .  S
O3268      C3269   1.283       .  A
C3269      C4861   1.462   1_545  S
O3270     Zr3282   2.442       .  S
O3270      C3272   1.290       .  A
O3271     Zr3285   2.417       .  S
O3271      C3272   1.287       .  A
C3272      C3584   1.471       .  S
O3273     Zr3282   2.500       .  S
O3273      C3275   1.299       .  A
O3274     Zr3286   2.448       .  S
O3274      C3275   1.294       .  A
C3275      C3477   1.507       .  S
O3276     Zr3279   2.415       .  S
O3276      C3278   1.272       .  A
O3277     Zr3285   2.467       .  S
O3277      C3278   1.286       .  A
C3278      C3487   1.491       .  S
Zr3279     O4504   2.452   1_545  S
Zr3279     O3281   2.443       .  S
Zr3279     O3287   2.355       .  S
Zr3279     O3288   2.348       .  S
Zr3279     O3291   2.377       .  S
Zr3279     O3289   2.363       .  S
O3280     Zr4503   2.452       .  S
O3280      H3300   0.990       .  S
O3280      H3305   0.990       .  S
O3281      H3301   0.990       .  S
Zr3282     O3283   2.433       .  S
Zr3282     O3284   2.433       .  S
Zr3282     O3288   2.383       .  S
Zr3282     O3287   2.352       .  S
Zr3282     O3292   2.371       .  S
Zr3282     O3290   2.380       .  S
O3283      H3299   0.990       .  S
O3284      H3298   0.990       .  S
O3284      H3308   0.990       .  S
Zr3285     O3288   2.407       .  S
Zr3285     O3290   2.419       .  S
Zr3285     O3291   2.388       .  S
Zr3286     O3287   2.390       .  S
Zr3286     O3289   2.378       .  S
Zr3286     O3292   2.389       .  S
O3287      H3295   0.962       .  S
O3290      H3294   0.966       .  S
O3291      H3296   0.965       .  S
O3309     Zr3321   2.483       .  S
O3309      C3311   1.296       .  A
O3310     Zr3347   2.431       .  S
O3310      C3311   1.291       .  A
C3311      C3547   1.499       .  S
O3312     Zr3324   2.391       .  S
O3312      C3314   1.275       .  A
O3313     Zr3348   2.467       .  S
O3313      C3314   1.293       .  A
C3314      C3534   1.469       .  S
O3315     Zr3324   2.419       .  S
O3315      C3317   1.277       .  A
O3316     Zr3347   2.447       .  S
O3316      C3317   1.285       .  A
O3318     Zr3321   2.486       .  S
O3318      C3320   1.297       .  A
O3319     Zr3348   2.428       .  S
O3319      C3320   1.287       .  A
C3320      C3507   1.494       .  S
Zr3321     O3322   2.434       .  S
Zr3321     O3323   2.434       .  S
Zr3321     O3327   2.364       .  S
Zr3321     O3328   2.384       .  S
Zr3321     O3351   2.373       .  S
Zr3321     O3353   2.395       .  S
O3322      H3365   0.990       .  S
O3323      H3364   0.990       .  S
O3323      H3368   0.990       .  S
Zr3324     O3326   2.442       .  S
Zr3324     O3328   2.371       .  S
Zr3324     O3327   2.352       .  S
Zr3324     O3352   2.362       .  S
Zr3324     O3354   2.367       .  S
O3325      H3366   0.990       .  S
O3325      H3369   0.990       .  S
O3326      H3359   0.989       .  S
O3327     Zr3347   2.385       .  S
O3328     Zr3348   2.396       .  S
O3328      H3355   0.966       .  S
O3329     Zr3341   2.487       .  S
O3329      C3331   1.297       .  A
O3330     Zr3348   2.418       .  S
O3330      C3331   1.285       .  A
C3331      C3444   1.484       .  S
O3332     Zr3344   2.406       .  S
O3332      C3334   1.281       .  A
O3333     Zr3347   2.450       .  S
O3333      C3334   1.291       .  A
C3334      C3494   1.472       .  S
O3335     Zr3344   2.377       .  S
O3335      C3337   1.276       .  A
O3336     Zr3348   2.462       .  S
O3336      C3337   1.292       .  A
C3337      C3467   1.466       .  S
O3338     Zr3341   2.490       .  S
O3338      C3340   1.297       .  A
O3339     Zr3347   2.436       .  S
O3339      C3340   1.292       .  A
C3340      C3454   1.502       .  S
Zr3341     O3342   2.437       .  S
Zr3341     O3343   2.435       .  S
Zr3341     O3349   2.383       .  S
Zr3341     O3350   2.366       .  S
Zr3341     O3353   2.392       .  S
Zr3341     O3351   2.379       .  S
O3342      H3362   0.990       .  S
O3342      H3367   0.990       .  S
O3343      H3363   0.990       .  S
Zr3344     O3345   2.434       .  S
Zr3344     O3346   2.435       .  S
Zr3344     O3350   2.342       .  S
Zr3344     O3349   2.367       .  S
Zr3344     O3354   2.370       .  S
Zr3344     O3352   2.356       .  S
O3345      H3361   0.990       .  S
O3346      H3360   0.990       .  S
O3346      H3370   0.990       .  S
Zr3347     O3350   2.375       .  S
Zr3347     O3352   2.381       .  S
Zr3347     O3353   2.415       .  S
Zr3348     O3349   2.398       .  S
Zr3348     O3351   2.404       .  S
Zr3348     O3354   2.372       .  S
O3349      H3357   0.966       .  S
O3352      H3356   0.965       .  S
O3353      H3358   0.966       .  S
O3371     Zr3383   2.460       .  S
O3371      C3373   1.290       .  A
O3372     Zr3409   2.430       .  S
O3372      C3373   1.287       .  A
C3373      C3567   1.476       .  S
O3374     Zr3386   2.411       .  S
O3374      C3376   1.283       .  A
O3375     Zr3410   2.489       .  S
O3375      C3376   1.299       .  A
C3376      C3447   1.482       .  S
O3377     Zr3386   2.448       .  S
O3377      C3379   1.289       .  A
O3378     Zr3409   2.408       .  S
O3378      C3379   1.284       .  A
C3379      C3664   1.487       .  S
O3380     Zr3383   2.434       .  S
O3380      C3382   1.289       .  A
O3381     Zr3410   2.466       .  S
O3381      C3382   1.295       .  A
C3382      C3517   1.492       .  S
Zr3383     O3384   2.434       .  S
Zr3383     O3385   2.435       .  S
Zr3383     O3389   2.377       .  S
Zr3383     O3390   2.369       .  S
Zr3383     O3413   2.377       .  S
Zr3383     O3415   2.361       .  S
O3384      H3427   0.990       .  S
O3385      H3426   0.990       .  S
O3385      H3430   0.990       .  S
Zr3386     O3387   2.434       .  S
Zr3386     O3388   2.434       .  S
Zr3386     O3390   2.377       .  S
Zr3386     O3389   2.372       .  S
Zr3386     O3414   2.361       .  S
Zr3386     O3416   2.379       .  S
O3387      H3428   0.990       .  S
O3387      H3431   0.990       .  S
O3388      H3421   0.990       .  S
O3389     Zr3409   2.381       .  S
O3390     Zr3410   2.413       .  S
O3390      H3417   0.965       .  S
O3391     Zr3403   2.382       .  S
O3391      C3393   1.276       .  A
O3392     Zr3410   2.523       .  S
O3392      C3393   1.306       .  A
C3393      C3557   1.488       .  S
O3394     Zr3406   2.422       .  S
O3394      C3396   1.286       .  A
O3395     Zr3409   2.424       .  S
O3395      C3396   1.285       .  A
C3396      C3527   1.466       .  S
O3397     Zr3406   2.399       .  S
O3397      C3399   1.280       .  A
O3398     Zr3410   2.509       .  S
O3398      C3399   1.304       .  A
C3399      C3657   1.507       .  S
O3400     Zr3403   2.434       .  S
O3400      C3402   1.288       .  A
O3401     Zr3409   2.413       .  S
O3401      C3402   1.283       .  A
C3402      C4661   1.489       .  S
Zr3403     O3404   2.436       .  S
Zr3403     O3405   2.434       .  S
Zr3403     O3411   2.381       .  S
Zr3403     O3412   2.344       .  S
Zr3403     O3415   2.349       .  S
Zr3403     O3413   2.371       .  S
O3404      H3424   0.990       .  S
O3404      H3429   0.990       .  S
O3405      H3425   0.990       .  S
Zr3406     O3407   2.435       .  S
Zr3406     O3408   2.435       .  S
Zr3406     O3412   2.355       .  S
Zr3406     O3411   2.366       .  S
Zr3406     O3416   2.369       .  S
Zr3406     O3414   2.351       .  S
O3407      H3423   0.990       .  S
O3408      H3422   0.990       .  S
O3408      H3432   0.990       .  S
Zr3409     O3412   2.377       .  S
Zr3409     O3414   2.384       .  S
Zr3409     O3415   2.380       .  S
Zr3410     O3411   2.399       .  S
Zr3410     O3413   2.405       .  S
Zr3410     O3416   2.400       .  S
O3411      H3419   0.966       .  S
O3414      H3418   0.965       .  S
O3415      H3420   0.966       .  S
C3433      C3434   1.405       .  A
C3433      C3438   1.383       .  A
C3433      F3440   1.353       .  S
C3434      C3435   1.406       .  A
C3435      C3436   1.408       .  A
C3435      F3442   1.357       .  S
C3436      C3437   1.416       .  A
C3436      F3441   1.357       .  S
C3437      C4626   1.489   1_545  S
C3437      C3438   1.407       .  A
C3438      F3439   1.359       .  S
C3443      C3444   1.410       .  A
C3443      C3448   1.411       .  A
C3443      F3450   1.358       .  S
C3444      C3445   1.402       .  A
C3445      C3446   1.400       .  A
C3445      F3452   1.358       .  S
C3446      C3447   1.409       .  A
C3446      F3451   1.358       .  S
C3447      C3448   1.406       .  A
C3448      F3449   1.357       .  S
C3453      C3454   1.410       .  A
C3453      C3458   1.397       .  A
C3453      F3460   1.355       .  S
C3454      C3455   1.413       .  A
C3455      C3456   1.417       .  A
C3455      F3462   1.357       .  S
C3456      C3457   1.410       .  A
C3456      F3461   1.357       .  S
C3457      C3458   1.404       .  A
C3458      F3459   1.359       .  S
C3463      C3468   1.394       .  A
C3463      F3470   1.358       .  S
C3464      C3465   1.406       .  A
C3465      F3472   1.358       .  S
C3466      C3467   1.402       .  A
C3466      F3471   1.355       .  S
C3467      C3468   1.410       .  A
C3468      F3469   1.359       .  S
C3473      C3474   1.411       .  A
C3473      F3480   1.358       .  S
C3474      C3475   1.406       .  A
C3475      F3482   1.358       .  S
C3476      C4701   1.413       .  A
C3476      F3481   1.358       .  S
C3477      C4700   1.413   1_545  A
C3477      C4702   1.411   1_545  A
C3478      C4701   1.411       .  A
C3478      F4703   1.357       .  S
F3479      C4702   1.357   1_545  S
C3483      C3484   1.396       .  A
C3483      C4712   1.384       .  A
C3483      F3490   1.360       .  S
C3484      C4709   1.411       .  A
C3485      C4708   1.411   1_545  A
C3485      C3486   1.413       .  A
C3485      F4716   1.357       .  S
C3486      C3487   1.409       .  A
C3486      F3491   1.357       .  S
C3487      C3488   1.411       .  A
C3488      C4707   1.384   1_545  A
C3488      F3489   1.348   1_545  S
F3492      C4709   1.357       .  S
C3493      C3494   1.405       .  A
C3493      C3498   1.402       .  A
C3493      F3500   1.358       .  S
C3494      C3495   1.408       .  A
C3495      C3496   1.396       .  A
C3495      F3502   1.358       .  S
C3496      C3497   1.401       .  A
C3496      F3501   1.358       .  S
C3497      C4440   1.470   1_545  S
C3497      C3498   1.407       .  A
C3498      F4723   1.358   1_545  S
F3499      C4722   1.358       .  S
C3503      C3504   1.412       .  A
C3503      C3508   1.402       .  A
C3503      F3510   1.358       .  S
C3504      C3505   1.407       .  A
C3505      C3506   1.412       .  A
C3505      F3512   1.354       .  S
C3506      C3507   1.413       .  A
C3506      F3511   1.358       .  S
C3507      C3508   1.404       .  A
C3508      F3509   1.358       .  S
C3513      C3514   1.407       .  A
C3513      C3518   1.396       .  A
C3513      F3520   1.358       .  S
C3514      C3515   1.409       .  A
C3515      C3516   1.413       .  A
C3515      F3522   1.355       .  S
C3516      C3517   1.410       .  A
C3516      F3521   1.357       .  S
C3517      C3518   1.408       .  A
C3518      F3519   1.359       .  S
C3523      C3524   1.405       .  A
C3523      C3528   1.407       .  A
C3523      F3530   1.357       .  S
C3524      C3525   1.404       .  A
C3525      C3526   1.382       .  A
C3525      F3532   1.359       .  S
C3526      C3527   1.401       .  A
C3526      F3531   1.359       .  S
C3527      C3528   1.408       .  A
C3528      F3529   1.356       .  S
C3533      C3534   1.402       .  A
C3533      F3540   1.356       .  S
C3535      C3536   1.402   1_455  A
C3535      F3542   1.358       .  S
C3536      F3541   1.358       .  S
C3538      F3539   1.355       .  S
C3543      C3544   1.408       .  A
C3543      C3548   1.416   1_655  A
C3543      F3550   1.357       .  S
C3544      C3545   1.405       .  A
C3545      F3552   1.359       .  S
C3546      C3547   1.409       .  A
C3546      F3551   1.356       .  S
C3548      F3549   1.357       .  S
C3553      C4166   1.410       .  A
C3553      C3558   1.407       .  A
C3553      F4784   1.358       .  S
C3554      C4165   1.410       .  A
C3554      C4779   1.412       .  A
C3555      C4778   1.412       .  A
C3555      F4786   1.358       .  S
C3556      C3557   1.410       .  A
C3556      F3561   1.358       .  S
C3557      C3558   1.409       .  A
C3558      F3559   1.358       .  S
F3560      C4777   1.358       .  S
F3562      C4779   1.358   1_545  S
C3563      C4788   1.419       .  A
C3563      C3568   1.397       .  A
C3563      F3570   1.358       .  S
C3564      C4787   1.419   1_545  A
C3564      C3565   1.411       .  A
C3565      C3566   1.409       .  A
C3565      F3572   1.357       .  S
C3566      C4791   1.407   1_545  A
C3566      F3571   1.357       .  S
C3567      C4790   1.407       .  A
C3567      C3568   1.396       .  A
C3568      F3569   1.358       .  S
C3573      C3574   1.404       .  A
C3573      C3578   1.384       .  A
C3573      F3580   1.359       .  S
C3574      C3575   1.405       .  A
C3575      C3576   1.402       .  A
C3575      F3582   1.358       .  S
C3576      C3577   1.407       .  A
C3576      F3581   1.355       .  S
C3577      C3578   1.403       .  A
C3578      F3579   1.359       .  S
C3583      C3584   1.406       .  A
C3583      C3588   1.399       .  A
C3583      F3590   1.356       .  S
C3584      C3585   1.404       .  A
C3585      C3586   1.391       .  A
C3585      F3592   1.358       .  S
C3586      C3587   1.406       .  A
C3586      F3591   1.358       .  S
C3587      C3588   1.406       .  A
C3588      F3589   1.358       .  S
C3593      C3594   1.400   1_554  A
C3593      F3600   1.359   1_554  S
C3594      C3595   1.417       .  A
C3595      F3602   1.357       .  S
C3596      C3597   1.410       .  A
C3596      F3601   1.356       .  S
C3597      C3598   1.411       .  A
C3598      F3599   1.356       .  S
C3603      C3608   1.398       .  A
C3603      F3610   1.358       .  S
C3604      C3605   1.402       .  A
C3605      C3606   1.400       .  A
C3605      F3612   1.357       .  S
C3606      F3611   1.358       .  S
C3607      C3608   1.403       .  A
C3608      F3609   1.358       .  S
C3613      C3614   1.402       .  A
C3613      C3618   1.378       .  A
C3613      F3620   1.359       .  S
C3614      C3615   1.401       .  A
C3615      C3616   1.392       .  A
C3615      F3622   1.358       .  S
C3616      C3617   1.401       .  A
C3616      F4845   1.356       .  S
C3617      C4375   1.429       .  S
C3617      C3618   1.398       .  A
C3618      F3619   1.360       .  S
F3621      C4840   1.356   1_545  S
C3623      C3624   1.414       .  A
C3623      C3628   1.394       .  A
C3623      F3630   1.358       .  S
C3624      C3625   1.401       .  A
C3625      C3626   1.389       .  A
C3625      F3632   1.358       .  S
C3626      C3627   1.413       .  A
C3626      F3631   1.358       .  S
C3627      C3628   1.401       .  A
C3628      F3629   1.358       .  S
C3633      C3634   1.390       .  A
C3633      C3638   1.384       .  A
C3633      F3640   1.359       .  S
C3634      C3635   1.403       .  A
C3635      C3636   1.390       .  A
C3635      F3642   1.359       .  S
C3636      C3637   1.403       .  A
C3636      F3641   1.358       .  S
C3637      C4493   1.462       .  S
C3637      C3638   1.416       .  A
C3638      F3639   1.358       .  S
C3643      C3644   1.402       .  A
C3643      C3648   1.398       .  A
C3643      F3650   1.358       .  S
C3644      C3645   1.397       .  A
C3645      C3646   1.389       .  A
C3645      F3652   1.359       .  S
C3646      C3647   1.410       .  A
C3646      F3651   1.359       .  S
C3647      C3648   1.405       .  A
C3648      F3649   1.355       .  S
C3653      C3654   1.421       .  A
C3653      C3658   1.407       .  A
C3653      F3660   1.358       .  S
C3655      C3656   1.408       .  A
C3655      F3662   1.357       .  S
C3656      C3657   1.424       .  A
C3656      F3661   1.357       .  S
C3658      F3659   1.357       .  S
C3663      C3664   1.410       .  A
C3663      C3668   1.403       .  A
C3663      F3670   1.358       .  S
C3664      C3665   1.410       .  A
C3665      C3666   1.389       .  A
C3665      F3672   1.358       .  S
C3666      C3667   1.411       .  A
C3666      F3671   1.359       .  S
C3667      C3668   1.411       .  A
C3668      F3669   1.358       .  S
O3673     Zr3685   2.451       .  S
O3673      C3675   1.289       .  A
O3674     Zr3711   2.398       .  S
O3674      C3675   1.282       .  A
C3675      C4279   1.489       .  S
O3676     Zr3688   2.375       .  S
O3676      C3678   1.274       .  A
O3677     Zr3712   2.523       .  S
O3677      C3678   1.304       .  A
C3678      C4266   1.498       .  S
O3679     Zr3688   2.365       .  S
O3679      C3681   1.275       .  A
O3680     Zr3711   2.411       .  S
O3680      C3681   1.282       .  A
C3681      C4226   1.437       .  S
O3682     Zr3685   2.410       .  S
O3682      C3684   1.282       .  A
O3683     Zr3712   2.428       .  S
O3683      C3684   1.289       .  A
C3684      C4256   1.449       .  S
Zr3685     O3686   2.434       .  S
Zr3685     O3687   2.436       .  S
Zr3685     O3691   2.351       .  S
Zr3685     O3692   2.378       .  S
Zr3685     O3715   2.362       .  S
Zr3685     O3717   2.367       .  S
O3686      H3729   0.990       .  S
O3687      H3728   0.990       .  S
O3687      H3732   0.990       .  S
Zr3688     O3689   2.436       .  S
Zr3688     O3690   2.435       .  S
Zr3688     O3692   2.346       .  S
Zr3688     O3691   2.359       .  S
Zr3688     O3716   2.344       .  S
Zr3688     O3718   2.369       .  S
O3689      H3730   0.990       .  S
O3689      H3733   0.990       .  S
O3690      H3723   0.990       .  S
O3691     Zr3711   2.374       .  S
O3692     Zr3712   2.394       .  S
O3692      H3719   0.966       .  S
O3693     Zr3705   2.409       .  S
O3693      C3695   1.283       .  A
O3694     Zr3712   2.424       .  S
O3694      C3695   1.290       .  A
C3695      C4236   1.471       .  S
O3696     Zr3708   2.401       .  S
O3696      C3698   1.280       .  A
O3697     Zr3711   2.400       .  S
O3697      C3698   1.281       .  A
O3699     Zr3708   2.380       .  S
O3699      C3701   1.275       .  A
O3700     Zr3712   2.516       .  S
O3700      C3701   1.304       .  A
C3701      C4206   1.481       .  S
O3702     Zr3705   2.444       .  S
O3702      C3704   1.288       .  A
O3703     Zr3711   2.417       .  S
O3703      C3704   1.285       .  A
C3704      C4219   1.467       .  S
Zr3705     O3706   2.436       .  S
Zr3705     O3707   2.434       .  S
Zr3705     O3713   2.374       .  S
Zr3705     O3714   2.357       .  S
Zr3705     O3717   2.365       .  S
Zr3705     O3715   2.363       .  S
O3706      H3726   0.990       .  S
O3706      H3731   0.990       .  S
O3707      H3727   0.990       .  S
Zr3708     O3709   2.433   1_655  S
Zr3708     O3710   2.436       .  S
Zr3708     O3714   2.356       .  S
Zr3708     O3713   2.361       .  S
Zr3708     O3718   2.382       .  S
Zr3708     O3716   2.345       .  S
O3710      H3724   0.989       .  S
O3710      H3734   0.990       .  S
Zr3711     O3714   2.374       .  S
Zr3711     O3716   2.374       .  S
Zr3711     O3717   2.377       .  S
Zr3712     O3713   2.401       .  S
Zr3712     O3715   2.407       .  S
Zr3712     O3718   2.372       .  S
O3713      H3721   0.965       .  S
O3716      H3720   0.965       .  S
O3717      H3722   0.966       .  S
O3735     Zr3747   2.402       .  S
O3735      C3737   1.282       .  A
O3736     Zr3773   2.433       .  S
O3736      C3737   1.290       .  A
C3737      C4239   1.471       .  S
O3738     Zr3750   2.432       .  S
O3738      C3740   1.288       .  A
O3739     Zr3774   2.409       .  S
O3739      C3740   1.282       .  A
O3741     Zr3750   2.410       .  S
O3741      C3743   1.282       .  A
O3742     Zr3773   2.485       .  S
O3742      C3743   1.297       .  A
C3743      C4156   1.484       .  S
O3744     Zr3747   2.424       .  S
O3744      C3746   1.284       .  A
O3745     Zr3774   2.461       .  S
O3745      C3746   1.295       .  A
C3746      C4149   1.477       .  S
Zr3747     O3748   2.434       .  S
Zr3747     O3749   2.434       .  S
Zr3747     O3753   2.386       .  S
Zr3747     O3754   2.363       .  S
Zr3747     O3777   2.382       .  S
Zr3747     O3779   2.367       .  S
O3748      H3791   0.990       .  S
O3749      H3790   0.990       .  S
O3749      H3794   0.990       .  S
Zr3750     O3751   2.435   1_655  S
Zr3750     O3752   2.434       .  S
Zr3750     O3754   2.345       .  S
Zr3750     O3753   2.368       .  S
Zr3750     O3778   2.372       .  S
Zr3750     O3780   2.352       .  S
O3751      H3792   0.990       .  S
O3752      H3785   0.990       .  S
O3753     Zr3773   2.395       .  S
O3754     Zr3774   2.388       .  S
O3754      H3781   0.964       .  S
O3755     Zr3767   2.470       .  S
O3755      C3757   1.291       .  A
O3756     Zr3774   2.464       .  S
O3756      C3757   1.295       .  A
C3757      C4166   1.505       .  S
O3758     Zr3770   2.404       .  S
O3758      C3760   1.273       .  A
O3759     Zr3773   2.475       .  S
O3759      C3760   1.290       .  A
C3760      C4176   1.499       .  S
O3761     Zr3770   2.371       .  S
O3761      C3763   1.275       .  A
O3762     Zr3774   2.403       .  S
O3762      C3763   1.280       .  A
O3764     Zr3767   2.434       .  S
O3764      C3766   1.289       .  A
O3765     Zr3773   2.420       .  S
O3765      C3766   1.287       .  A
C3766      C4199   1.472       .  S
Zr3767     O3768   2.437       .  S
Zr3767     O3769   2.434       .  S
Zr3767     O3775   2.362       .  S
Zr3767     O3776   2.375       .  S
Zr3767     O3779   2.371       .  S
Zr3767     O3777   2.378       .  S
O3768      H3788   0.990       .  S
O3768      H3793   0.990       .  S
O3769      H3789   0.990       .  S
Zr3770     O3772   2.436       .  S
Zr3770     O3776   2.341       .  S
Zr3770     O3775   2.359       .  S
Zr3770     O3780   2.355       .  S
Zr3770     O3778   2.351       .  S
O3772      H3786   0.990       .  S
O3772      H3796   0.990       .  S
Zr3773     O3776   2.393       .  S
Zr3773     O3778   2.386       .  S
Zr3773     O3779   2.416       .  S
Zr3774     O3775   2.393       .  S
Zr3774     O3777   2.383       .  S
Zr3774     O3780   2.390       .  S
O3775      H3783   0.965       .  S
O3778      H3782   0.965       .  S
O3779      H3784   0.966       .  S
O3797     Zr3809   2.406       .  S
O3797      C3799   1.282       .  A
O3798     Zr3835   2.435       .  S
O3798      C3799   1.286       .  A
O3800     Zr3812   2.407       .  S
O3800      C3802   1.282       .  A
O3801     Zr3836   2.503       .  S
O3801      C3802   1.302       .  A
C3802      C4116   1.494       .  S
O3803     Zr3812   2.447       .  S
O3803      C3805   1.287       .  A
O3804     Zr3835   2.414       .  S
O3804      C3805   1.284       .  A
C3805      C4216   1.465       .  S
O3806     Zr3809   2.377       .  S
O3806      C3808   1.276       .  A
O3807     Zr3836   2.528       .  S
O3807      C3808   1.305       .  A
C3808      C4209   1.497       .  S
Zr3809     O3811   2.435       .  S
Zr3809     O3815   2.351       .  S
Zr3809     O3816   2.369       .  S
Zr3809     O3839   2.363       .  S
Zr3809     O3841   2.351       .  S
O3810      H3853   0.990       .  S
O3811      H3852   0.989       .  S
O3811      H3856   0.990       .  S
Zr3812     O3813   2.437       .  S
Zr3812     O3814   2.435       .  S
Zr3812     O3816   2.374       .  S
Zr3812     O3815   2.356       .  S
Zr3812     O3840   2.365       .  S
Zr3812     O3842   2.377       .  S
O3813      H3854   0.990       .  S
O3813      H3857   0.990       .  S
O3814      H3847   0.990       .  S
O3815     Zr3835   2.372       .  S
O3816     Zr3836   2.402       .  S
O3816      H3843   0.965       .  S
O3817     Zr3829   2.396       .  S
O3817      C3819   1.279       .  A
O3818     Zr3836   2.516       .  S
O3818      C3819   1.305       .  A
C3819      C4086   1.489       .  S
O3820     Zr3832   2.456       .  S
O3820      C3822   1.289       .  A
O3821     Zr3835   2.411       .  S
O3821      C3822   1.287       .  A
C3822      C4096   1.477       .  S
O3823     Zr3832   2.438       .  S
O3823      C3825   1.289       .  A
O3824     Zr3836   2.467       .  S
O3824      C3825   1.295       .  A
C3825      C4126   1.492       .  S
O3826     Zr3829   2.464       .  S
O3826      C3828   1.293       .  A
O3827     Zr3835   2.404       .  S
O3827      C3828   1.282       .  A
Zr3829     O3830   2.436   1_565  S
Zr3829     O3831   2.436       .  S
Zr3829     O3837   2.375       .  S
Zr3829     O3838   2.346       .  S
Zr3829     O3841   2.349       .  S
Zr3829     O3839   2.394       .  S
O3830      H3850   0.990   1_545  S
O3831      H3851   0.990       .  S
Zr3832     O3833   2.433       .  S
Zr3832     O3834   2.434       .  S
Zr3832     O3838   2.363       .  S
Zr3832     O3837   2.377       .  S
Zr3832     O3842   2.371       .  S
Zr3832     O3840   2.380       .  S
O3833      H3849   0.990       .  S
O3834      H3848   0.990       .  S
O3834      H3858   0.990       .  S
Zr3835     O3838   2.380       .  S
Zr3835     O3840   2.389       .  S
Zr3835     O3841   2.371       .  S
Zr3836     O3837   2.419       .  S
Zr3836     O3839   2.400       .  S
Zr3836     O3842   2.410       .  S
O3837      H3845   0.966       .  S
O3840      H3844   0.966       .  S
O3841      H3846   0.965       .  S
O3859     Zr3871   2.403       .  S
O3859      C3861   1.280       .  A
O3860     Zr3897   2.493       .  S
O3860      C3861   1.298       .  A
C3861      C4069   1.487       .  S
O3862     Zr3874   2.409       .  S
O3862      C3864   1.281       .  A
O3863     Zr3898   2.453       .  S
O3863      C3864   1.292       .  A
C3864      C4076   1.462       .  S
O3865     Zr3874   2.398       .  S
O3865      C3867   1.281       .  A
O3866     Zr3897   2.440       .  S
O3866      C3867   1.290       .  A
C3867      C4259   1.468       .  S
O3868     Zr3871   2.420       .  S
O3868      C3870   1.285       .  A
O3869     Zr3898   2.413       .  S
O3869      C3870   1.284       .  A
C3870      C4186   1.465       .  S
Zr3871     O3872   2.434       .  S
Zr3871     O3873   2.437       .  S
Zr3871     O3877   2.365       .  S
Zr3871     O3878   2.348       .  S
Zr3871     O3901   2.348       .  S
Zr3871     O3903   2.369       .  S
O3872      H3915   0.990       .  S
O3873      H3914   0.990       .  S
O3873      H3918   0.990       .  S
Zr3874     O3875   2.436       .  S
Zr3874     O3876   2.435       .  S
Zr3874     O3878   2.361       .  S
Zr3874     O3877   2.377       .  S
Zr3874     O3902   2.365       .  S
Zr3874     O3904   2.379       .  S
O3875      H3916   0.990       .  S
O3875      H3919   0.990       .  S
O3876      H3909   0.990       .  S
O3877     Zr3897   2.385       .  S
O3878     Zr3898   2.385       .  S
O3878      H3905   0.965       .  S
O3879     Zr3891   2.394       .  S
O3879      C3881   1.270       .  A
O3880     Zr3898   2.427       .  S
O3880      C3881   1.283       .  A
O3882     Zr3894   2.442       .  S
O3882      C3884   1.290       .  A
O3883     Zr3897   2.417       .  S
O3883      C3884   1.287       .  A
C3884      C4196   1.471       .  S
O3885     Zr3894   2.500       .  S
O3885      C3887   1.299       .  A
O3886     Zr3898   2.448       .  S
O3886      C3887   1.294       .  A
C3887      C4089   1.507       .  S
O3888     Zr3891   2.415       .  S
O3888      C3890   1.272       .  A
O3889     Zr3897   2.467       .  S
O3889      C3890   1.286       .  A
C3890      C4099   1.491       .  S
Zr3891     O3893   2.443       .  S
Zr3891     O3899   2.355       .  S
Zr3891     O3900   2.348       .  S
Zr3891     O3903   2.377       .  S
Zr3891     O3901   2.363       .  S
O3892      H3912   0.990       .  S
O3892      H3917   0.990       .  S
O3893      H3913   0.990       .  S
Zr3894     O3895   2.433       .  S
Zr3894     O3896   2.433       .  S
Zr3894     O3900   2.383       .  S
Zr3894     O3899   2.352       .  S
Zr3894     O3904   2.371       .  S
Zr3894     O3902   2.380       .  S
O3895      H3911   0.990       .  S
O3896      H3910   0.990       .  S
O3896      H3920   0.990       .  S
Zr3897     O3900   2.407       .  S
Zr3897     O3902   2.419       .  S
Zr3897     O3903   2.388       .  S
Zr3898     O3899   2.390       .  S
Zr3898     O3901   2.378       .  S
Zr3898     O3904   2.389       .  S
O3899      H3907   0.962       .  S
O3902      H3906   0.966       .  S
O3903      H3908   0.965       .  S
O3921     Zr3933   2.483       .  S
O3921      C3923   1.296       .  A
O3922     Zr3959   2.431       .  S
O3922      C3923   1.291       .  A
C3923      C4159   1.499       .  S
O3924     Zr3936   2.391       .  S
O3924      C3926   1.275       .  A
O3925     Zr3960   2.467       .  S
O3925      C3926   1.293       .  A
C3926      C4146   1.469       .  S
O3927     Zr3936   2.419       .  S
O3927      C3929   1.277       .  A
O3928     Zr3959   2.447       .  S
O3928      C3929   1.285       .  A
O3930     Zr3933   2.486       .  S
O3930      C3932   1.297       .  A
O3931     Zr3960   2.428       .  S
O3931      C3932   1.287       .  A
C3932      C4119   1.494       .  S
Zr3933     O3934   2.434       .  S
Zr3933     O3935   2.434       .  S
Zr3933     O3939   2.364       .  S
Zr3933     O3940   2.384       .  S
Zr3933     O3963   2.373       .  S
Zr3933     O3965   2.395       .  S
O3934      H3977   0.990       .  S
O3935      H3976   0.990       .  S
O3935      H3980   0.990       .  S
Zr3936     O3938   2.442       .  S
Zr3936     O3940   2.371       .  S
Zr3936     O3939   2.352       .  S
Zr3936     O3964   2.362       .  S
Zr3936     O3966   2.367       .  S
O3937      H3978   0.990       .  S
O3937      H3981   0.990       .  S
O3938      H3971   0.989       .  S
O3939     Zr3959   2.385       .  S
O3940     Zr3960   2.396       .  S
O3940      H3967   0.966       .  S
O3941     Zr3953   2.487       .  S
O3941      C3943   1.297       .  A
O3942     Zr3960   2.418       .  S
O3942      C3943   1.285       .  A
C3943      C4056   1.484       .  S
O3944     Zr3956   2.406       .  S
O3944      C3946   1.281       .  A
O3945     Zr3959   2.450       .  S
O3945      C3946   1.291       .  A
C3946      C4106   1.472       .  S
O3947     Zr3956   2.377       .  S
O3947      C3949   1.276       .  A
O3948     Zr3960   2.462       .  S
O3948      C3949   1.292       .  A
C3949      C4079   1.466       .  S
O3950     Zr3953   2.490       .  S
O3950      C3952   1.297       .  A
O3951     Zr3959   2.436       .  S
O3951      C3952   1.292       .  A
C3952      C4066   1.502       .  S
Zr3953     O3954   2.437       .  S
Zr3953     O3955   2.435       .  S
Zr3953     O3961   2.383       .  S
Zr3953     O3962   2.366       .  S
Zr3953     O3965   2.392       .  S
Zr3953     O3963   2.379       .  S
O3954      H3974   0.990       .  S
O3954      H3979   0.990       .  S
O3955      H3975   0.990       .  S
Zr3956     O3957   2.434       .  S
Zr3956     O3958   2.435       .  S
Zr3956     O3962   2.342       .  S
Zr3956     O3961   2.367       .  S
Zr3956     O3966   2.370       .  S
Zr3956     O3964   2.356       .  S
O3957      H3973   0.990       .  S
O3958      H3972   0.990       .  S
O3958      H3982   0.990       .  S
Zr3959     O3962   2.375       .  S
Zr3959     O3964   2.381       .  S
Zr3959     O3965   2.415       .  S
Zr3960     O3961   2.398       .  S
Zr3960     O3963   2.404       .  S
Zr3960     O3966   2.372       .  S
O3961      H3969   0.966       .  S
O3964      H3968   0.965       .  S
O3965      H3970   0.966       .  S
O3983     Zr3995   2.460       .  S
O3983      C3985   1.290       .  A
O3984     Zr4021   2.430       .  S
O3984      C3985   1.287       .  A
C3985      C4179   1.476       .  S
O3986     Zr3998   2.411       .  S
O3986      C3988   1.283       .  A
O3987     Zr4022   2.489       .  S
O3987      C3988   1.299       .  A
C3988      C4059   1.482       .  S
O3989     Zr3998   2.448       .  S
O3989      C3991   1.289       .  A
O3990     Zr4021   2.408       .  S
O3990      C3991   1.284       .  A
C3991      C4276   1.487       .  S
O3992     Zr3995   2.434       .  S
O3992      C3994   1.289       .  A
O3993     Zr4022   2.466       .  S
O3993      C3994   1.295       .  A
C3994      C4129   1.492       .  S
Zr3995     O3996   2.434       .  S
Zr3995     O3997   2.435       .  S
Zr3995     O4001   2.377       .  S
Zr3995     O4002   2.369       .  S
Zr3995     O4025   2.377       .  S
Zr3995     O4027   2.361       .  S
O3996      H4039   0.990       .  S
O3997      H4038   0.990       .  S
O3997      H4042   0.990       .  S
Zr3998     O3999   2.434       .  S
Zr3998     O4000   2.434       .  S
Zr3998     O4002   2.377       .  S
Zr3998     O4001   2.372       .  S
Zr3998     O4026   2.361       .  S
Zr3998     O4028   2.379       .  S
O3999      H4040   0.990       .  S
O3999      H4043   0.990       .  S
O4000      H4033   0.990       .  S
O4001     Zr4021   2.381       .  S
O4002     Zr4022   2.413       .  S
O4002      H4029   0.965       .  S
O4003     Zr4015   2.382       .  S
O4003      C4005   1.276       .  A
O4004     Zr4022   2.523       .  S
O4004      C4005   1.306       .  A
C4005      C4169   1.488       .  S
O4006     Zr4018   2.422       .  S
O4006      C4008   1.286       .  A
O4007     Zr4021   2.424       .  S
O4007      C4008   1.285       .  A
C4008      C4139   1.466       .  S
O4009     Zr4018   2.399       .  S
O4009      C4011   1.280       .  A
O4010     Zr4022   2.509       .  S
O4010      C4011   1.304       .  A
C4011      C4269   1.507       .  S
O4012     Zr4015   2.434       .  S
O4012      C4014   1.288       .  A
O4013     Zr4021   2.413       .  S
O4013      C4014   1.283       .  A
Zr4015     O4016   2.436       .  S
Zr4015     O4017   2.434   1_565  S
Zr4015     O4023   2.381       .  S
Zr4015     O4024   2.344       .  S
Zr4015     O4027   2.349       .  S
Zr4015     O4025   2.371       .  S
O4016      H4036   0.990       .  S
O4016      H4041   0.990       .  S
O4017      H4037   0.990   1_545  S
Zr4018     O4019   2.435       .  S
Zr4018     O4020   2.435       .  S
Zr4018     O4024   2.355       .  S
Zr4018     O4023   2.366       .  S
Zr4018     O4028   2.369       .  S
Zr4018     O4026   2.351       .  S
O4019      H4035   0.990       .  S
O4020      H4034   0.990       .  S
O4020      H4044   0.990       .  S
Zr4021     O4024   2.377       .  S
Zr4021     O4026   2.384       .  S
Zr4021     O4027   2.380       .  S
Zr4022     O4023   2.399       .  S
Zr4022     O4025   2.405       .  S
Zr4022     O4028   2.400       .  S
O4023      H4031   0.966       .  S
O4026      H4030   0.965       .  S
O4027      H4032   0.966       .  S
C4045      C4046   1.405       .  A
C4045      C4050   1.383       .  A
C4045      F4052   1.353       .  S
C4046      C4047   1.406       .  A
C4047      C4048   1.408       .  A
C4047      F4054   1.357       .  S
C4048      C4049   1.416       .  A
C4048      F4053   1.357       .  S
C4049      C4050   1.407       .  A
C4050      F4051   1.359       .  S
C4055      C4056   1.410       .  A
C4055      C4060   1.411       .  A
C4055      F4062   1.358       .  S
C4056      C4057   1.402       .  A
C4057      C4058   1.400       .  A
C4057      F4064   1.358       .  S
C4058      C4059   1.409       .  A
C4058      F4063   1.358       .  S
C4059      C4060   1.406       .  A
C4060      F4061   1.357       .  S
C4065      C4066   1.410       .  A
C4065      C4070   1.397       .  A
C4065      F4072   1.355       .  S
C4066      C4067   1.413       .  A
C4067      C4068   1.417       .  A
C4067      F4074   1.357       .  S
C4068      C4069   1.410       .  A
C4068      F4073   1.357       .  S
C4069      C4070   1.404       .  A
C4070      F4071   1.359       .  S
C4075      C4688   1.399   1_554  A
C4075      C4080   1.394       .  A
C4075      F4082   1.358       .  S
C4076      C4687   1.399       .  A
C4076      C4077   1.406       .  A
C4077      C4690   1.400       .  A
C4077      F4084   1.358       .  S
C4078      C4689   1.400   1_554  A
C4078      C4079   1.402       .  A
C4078      F4083   1.355       .  S
C4079      C4080   1.410       .  A
C4080      F4081   1.359       .  S
C4085      C4086   1.411       .  A
C4085      C4702   1.414   1_554  A
C4085      F4092   1.358       .  S
C4086      C4087   1.406   1_554  A
C4087      C4700   1.406       .  A
C4087      F4094   1.358       .  S
C4088      C4699   1.406       .  A
C4088      F4093   1.358       .  S
C4090      C4697   1.414       .  A
C4095      C4096   1.396       .  A
C4095      F4102   1.360       .  S
C4097      C4098   1.413       .  A
C4098      C4099   1.409       .  A
C4098      F4103   1.357       .  S
C4099      C4100   1.411       .  A
C4100      F4101   1.348       .  S
C4105      C4106   1.405       .  A
C4105      C4110   1.402       .  A
C4105      F4112   1.358       .  S
C4106      C4107   1.408       .  A
C4107      C4108   1.396       .  A
C4107      F4114   1.358       .  S
C4108      C4109   1.401       .  A
C4108      F4113   1.358       .  S
C4109      C4110   1.407       .  A
C4115      C4116   1.412       .  A
C4115      C4120   1.402       .  A
C4115      F4122   1.358       .  S
C4116      C4117   1.407       .  A
C4117      C4118   1.412       .  A
C4117      F4124   1.354       .  S
C4118      C4119   1.413       .  A
C4118      F4123   1.358       .  S
C4119      C4120   1.404       .  A
C4120      F4121   1.358       .  S
C4125      C4126   1.407       .  A
C4125      C4130   1.396       .  A
C4125      F4132   1.358       .  S
C4126      C4127   1.409       .  A
C4127      C4128   1.413       .  A
C4127      F4134   1.355       .  S
C4128      C4129   1.410       .  A
C4128      F4133   1.357       .  S
C4129      C4130   1.408       .  A
C4130      F4131   1.359       .  S
C4135      C4136   1.405       .  A
C4135      C4140   1.407       .  A
C4135      F4142   1.357       .  S
C4136      C4137   1.404       .  A
C4137      C4138   1.382       .  A
C4137      F4144   1.359       .  S
C4138      C4139   1.401       .  A
C4138      F4143   1.359       .  S
C4139      C4140   1.408       .  A
C4140      F4141   1.356       .  S
C4145      C4146   1.402       .  A
C4145      C4762   1.399   1_554  A
C4145      F4152   1.356       .  S
C4147      C4148   1.402   1_455  A
C4147      F4154   1.358       .  S
C4148      C4761   1.405   1_554  A
C4148      F4153   1.358       .  S
C4149      C4760   1.405       .  A
C4150      C4757   1.399       .  A
C4150      F4151   1.355       .  S
C4155      C4156   1.408       .  A
C4155      C4160   1.416   1_655  A
C4155      F4162   1.357       .  S
C4156      C4157   1.405       .  A
C4157      F4164   1.359       .  S
C4158      C4159   1.409       .  A
C4158      F4163   1.356       .  S
C4160      F4161   1.357       .  S
C4165      C4170   1.407       .  A
C4167      C4780   1.413       .  A
C4168      C4779   1.413   1_554  A
C4168      C4169   1.410       .  A
C4168      F4173   1.358       .  S
C4169      C4170   1.409   1_554  A
C4170      F4171   1.358       .  S
C4175      C4180   1.397       .  A
C4175      F4182   1.358       .  S
C4176      C4177   1.411       .  A
C4177      C4178   1.409       .  A
C4177      F4184   1.357       .  S
C4178      F4183   1.357       .  S
C4179      C4180   1.396       .  A
C4180      F4181   1.358       .  S
C4185      C4186   1.404       .  A
C4185      C4190   1.384       .  A
C4185      F4192   1.359       .  S
C4186      C4187   1.405       .  A
C4187      C4188   1.402       .  A
C4187      F4194   1.358       .  S
C4188      C4189   1.407       .  A
C4188      F4193   1.355       .  S
C4189      C4190   1.403       .  A
C4190      F4191   1.359       .  S
C4195      C4196   1.406       .  A
C4195      C4200   1.399       .  A
C4195      F4202   1.356       .  S
C4196      C4197   1.404       .  A
C4197      C4198   1.391       .  A
C4197      F4204   1.358       .  S
C4198      C4199   1.406       .  A
C4198      F4203   1.358       .  S
C4199      C4200   1.406       .  A
C4200      F4201   1.358       .  S
C4205      C4206   1.400       .  A
C4205      F4212   1.359       .  S
C4206      C4207   1.417       .  A
C4207      F4214   1.357       .  S
C4208      C4209   1.410       .  A
C4208      F4213   1.356       .  S
C4209      C4210   1.411       .  A
C4210      F4211   1.356       .  S
C4215      C4220   1.398       .  A
C4215      F4222   1.358       .  S
C4216      C4217   1.402       .  A
C4217      C4218   1.400       .  A
C4217      F4224   1.357       .  S
C4218      F4223   1.358       .  S
C4219      C4220   1.403       .  A
C4220      F4221   1.358       .  S
C4225      C4226   1.402       .  A
C4225      C4230   1.378       .  A
C4225      F4232   1.359       .  S
C4226      C4227   1.401       .  A
C4227      C4228   1.392       .  A
C4227      F4234   1.358       .  S
C4228      C4229   1.401       .  A
C4229      C4230   1.398       .  A
C4230      F4231   1.360       .  S
C4235      C4236   1.414       .  A
C4235      C4240   1.394       .  A
C4235      F4242   1.358       .  S
C4236      C4237   1.401       .  A
C4237      C4238   1.389       .  A
C4237      F4244   1.358       .  S
C4238      C4239   1.413       .  A
C4238      F4243   1.358       .  S
C4239      C4240   1.401       .  A
C4240      F4241   1.358       .  S
C4245      C4246   1.390       .  A
C4245      C4250   1.384       .  A
C4245      F4252   1.359       .  S
C4246      C4247   1.403       .  A
C4247      C4248   1.390       .  A
C4247      F4254   1.359       .  S
C4248      C4249   1.403       .  A
C4248      F4253   1.358       .  S
C4249      C4250   1.416       .  A
C4250      F4251   1.358       .  S
C4255      C4256   1.402       .  A
C4255      C4260   1.398       .  A
C4255      F4262   1.358       .  S
C4256      C4257   1.397       .  A
C4257      C4258   1.389       .  A
C4257      F4264   1.359       .  S
C4258      C4259   1.410       .  A
C4258      F4263   1.359       .  S
C4259      C4260   1.405       .  A
C4260      F4261   1.355       .  S
C4265      C4266   1.421       .  A
C4265      C4270   1.407       .  A
C4265      F4272   1.358       .  S
C4266      C4879   1.399       .  A
C4267      C4878   1.399   1_554  A
C4267      C4268   1.408       .  A
C4267      F4274   1.357       .  S
C4268      C4269   1.424       .  A
C4268      F4273   1.357       .  S
C4269      C4882   1.403   1_554  A
C4270      C4881   1.403       .  A
C4270      F4271   1.357       .  S
C4275      C4276   1.410       .  A
C4275      C4280   1.403       .  A
C4275      F4282   1.358       .  S
C4276      C4277   1.410       .  A
C4277      C4278   1.389       .  A
C4277      F4284   1.358       .  S
C4278      C4279   1.411       .  A
C4278      F4283   1.359       .  S
C4279      C4280   1.411       .  A
C4280      F4281   1.358       .  S
O4285     Zr4297   2.451       .  S
O4285      C4287   1.289       .  A
O4286     Zr4323   2.398       .  S
O4286      C4287   1.282       .  A
C4287      C4891   1.489       .  S
O4288     Zr4300   2.375       .  S
O4288      C4290   1.274       .  A
O4289     Zr4324   2.523       .  S
O4289      C4290   1.304       .  A
C4290      C4878   1.498       .  S
O4291     Zr4300   2.365       .  S
O4291      C4293   1.275       .  A
O4292     Zr4323   2.411       .  S
O4292      C4293   1.282       .  A
C4293      C4838   1.437       .  S
O4294     Zr4297   2.410       .  S
O4294      C4296   1.282       .  A
O4295     Zr4324   2.428       .  S
O4295      C4296   1.289       .  A
C4296      C4868   1.449       .  S
Zr4297     O4298   2.434       .  S
Zr4297     O4299   2.436       .  S
Zr4297     O4303   2.351       .  S
Zr4297     O4304   2.378       .  S
Zr4297     O4327   2.362       .  S
Zr4297     O4329   2.367       .  S
O4298      H4341   0.990       .  S
O4299      H4340   0.990       .  S
O4299      H4344   0.990       .  S
Zr4300     O4301   2.436       .  S
Zr4300     O4302   2.435       .  S
Zr4300     O4304   2.346       .  S
Zr4300     O4303   2.359       .  S
Zr4300     O4328   2.344       .  S
Zr4300     O4330   2.369       .  S
O4301      H4342   0.990       .  S
O4301      H4345   0.990       .  S
O4302      H4335   0.990       .  S
O4303     Zr4323   2.374       .  S
O4304     Zr4324   2.394       .  S
O4304      H4331   0.966       .  S
O4305     Zr4317   2.409       .  S
O4305      C4307   1.283       .  A
O4306     Zr4324   2.424       .  S
O4306      C4307   1.290       .  A
C4307      C4848   1.471       .  S
O4308     Zr4320   2.401       .  S
O4308      C4310   1.280       .  A
O4309     Zr4323   2.400       .  S
O4309      C4310   1.281       .  A
O4311     Zr4320   2.380       .  S
O4311      C4313   1.275       .  A
O4312     Zr4324   2.516       .  S
O4312      C4313   1.304       .  A
C4313      C4818   1.481       .  S
O4314     Zr4317   2.444       .  S
O4314      C4316   1.288       .  A
O4315     Zr4323   2.417       .  S
O4315      C4316   1.285       .  A
C4316      C4831   1.467       .  S
Zr4317     O4318   2.436       .  S
Zr4317     O4319   2.434       .  S
Zr4317     O4325   2.374       .  S
Zr4317     O4326   2.357       .  S
Zr4317     O4329   2.365       .  S
Zr4317     O4327   2.363       .  S
O4318      H4338   0.990       .  S
O4318      H4343   0.990       .  S
O4319      H4339   0.990       .  S
Zr4320     O4321   2.433   1_655  S
Zr4320     O4322   2.436       .  S
Zr4320     O4326   2.356       .  S
Zr4320     O4325   2.361       .  S
Zr4320     O4330   2.382       .  S
Zr4320     O4328   2.345       .  S
O4322      H4336   0.989       .  S
O4322      H4346   0.990       .  S
Zr4323     O4326   2.374       .  S
Zr4323     O4328   2.374       .  S
Zr4323     O4329   2.377       .  S
Zr4324     O4325   2.401       .  S
Zr4324     O4327   2.407       .  S
Zr4324     O4330   2.372       .  S
O4325      H4333   0.965       .  S
O4328      H4332   0.965       .  S
O4329      H4334   0.966       .  S
O4347     Zr4359   2.402       .  S
O4347      C4349   1.282       .  A
O4348     Zr4385   2.433       .  S
O4348      C4349   1.290       .  A
C4349      C4851   1.471       .  S
O4350     Zr4362   2.432       .  S
O4350      C4352   1.288       .  A
O4351     Zr4386   2.409       .  S
O4351      C4352   1.282       .  A
O4353     Zr4362   2.410       .  S
O4353      C4355   1.282       .  A
O4354     Zr4385   2.485       .  S
O4354      C4355   1.297       .  A
C4355      C4768   1.484       .  S
O4356     Zr4359   2.424       .  S
O4356      C4358   1.284       .  A
O4357     Zr4386   2.461       .  S
O4357      C4358   1.295       .  A
C4358      C4761   1.477       .  S
Zr4359     O4360   2.434       .  S
Zr4359     O4361   2.434       .  S
Zr4359     O4365   2.386       .  S
Zr4359     O4366   2.363       .  S
Zr4359     O4389   2.382       .  S
Zr4359     O4391   2.367       .  S
O4360      H4403   0.990       .  S
O4361      H4402   0.990       .  S
O4361      H4406   0.990       .  S
Zr4362     O4363   2.435   1_655  S
Zr4362     O4364   2.434       .  S
Zr4362     O4366   2.345       .  S
Zr4362     O4365   2.368       .  S
Zr4362     O4390   2.372       .  S
Zr4362     O4392   2.352       .  S
O4363      H4404   0.990       .  S
O4364      H4397   0.990       .  S
O4365     Zr4385   2.395       .  S
O4366     Zr4386   2.388       .  S
O4366      H4393   0.964       .  S
O4367     Zr4379   2.470       .  S
O4367      C4369   1.291       .  A
O4368     Zr4386   2.464       .  S
O4368      C4369   1.295       .  A
C4369      C4778   1.505       .  S
O4370     Zr4382   2.404       .  S
O4370      C4372   1.273       .  A
O4371     Zr4385   2.475       .  S
O4371      C4372   1.290       .  A
C4372      C4788   1.499       .  S
O4373     Zr4382   2.371       .  S
O4373      C4375   1.275       .  A
O4374     Zr4386   2.403       .  S
O4374      C4375   1.280       .  A
O4376     Zr4379   2.434       .  S
O4376      C4378   1.289       .  A
O4377     Zr4385   2.420       .  S
O4377      C4378   1.287       .  A
C4378      C4811   1.472       .  S
Zr4379     O4380   2.437       .  S
Zr4379     O4381   2.434       .  S
Zr4379     O4387   2.362       .  S
Zr4379     O4388   2.375       .  S
Zr4379     O4391   2.371       .  S
Zr4379     O4389   2.378       .  S
O4380      H4400   0.990       .  S
O4380      H4405   0.990       .  S
O4381      H4401   0.990       .  S
Zr4382     O4384   2.436       .  S
Zr4382     O4388   2.341       .  S
Zr4382     O4387   2.359       .  S
Zr4382     O4392   2.355       .  S
Zr4382     O4390   2.351       .  S
O4384      H4398   0.990       .  S
O4384      H4408   0.990       .  S
Zr4385     O4388   2.393       .  S
Zr4385     O4390   2.386       .  S
Zr4385     O4391   2.416       .  S
Zr4386     O4387   2.393       .  S
Zr4386     O4389   2.383       .  S
Zr4386     O4392   2.390       .  S
O4387      H4395   0.965       .  S
O4390      H4394   0.965       .  S
O4391      H4396   0.966       .  S
O4409     Zr4421   2.406       .  S
O4409      C4411   1.282       .  A
O4410     Zr4447   2.435       .  S
O4410      C4411   1.286       .  A
O4412     Zr4424   2.407       .  S
O4412      C4414   1.282       .  A
O4413     Zr4448   2.503       .  S
O4413      C4414   1.302       .  A
C4414      C4728   1.494       .  S
O4415     Zr4424   2.447       .  S
O4415      C4417   1.287       .  A
O4416     Zr4447   2.414       .  S
O4416      C4417   1.284       .  A
C4417      C4828   1.465       .  S
O4418     Zr4421   2.377       .  S
O4418      C4420   1.276       .  A
O4419     Zr4448   2.528       .  S
O4419      C4420   1.305       .  A
C4420      C4821   1.497       .  S
Zr4421     O4423   2.435       .  S
Zr4421     O4427   2.351       .  S
Zr4421     O4428   2.369       .  S
Zr4421     O4451   2.363       .  S
Zr4421     O4453   2.351       .  S
O4422      H4465   0.990       .  S
O4423      H4464   0.989       .  S
O4423      H4468   0.990       .  S
Zr4424     O4425   2.437       .  S
Zr4424     O4426   2.435       .  S
Zr4424     O4428   2.374       .  S
Zr4424     O4427   2.356       .  S
Zr4424     O4452   2.365       .  S
Zr4424     O4454   2.377       .  S
O4425      H4466   0.990       .  S
O4425      H4469   0.990       .  S
O4426      H4459   0.990       .  S
O4427     Zr4447   2.372       .  S
O4428     Zr4448   2.402       .  S
O4428      H4455   0.965       .  S
O4429     Zr4441   2.396       .  S
O4429      C4431   1.279       .  A
O4430     Zr4448   2.516       .  S
O4430      C4431   1.305       .  A
C4431      C4698   1.489       .  S
O4432     Zr4444   2.456       .  S
O4432      C4434   1.289       .  A
O4433     Zr4447   2.411       .  S
O4433      C4434   1.287       .  A
C4434      C4708   1.477       .  S
O4435     Zr4444   2.438       .  S
O4435      C4437   1.289       .  A
O4436     Zr4448   2.467       .  S
O4436      C4437   1.295       .  A
C4437      C4738   1.492       .  S
O4438     Zr4441   2.464       .  S
O4438      C4440   1.293       .  A
O4439     Zr4447   2.404       .  S
O4439      C4440   1.282       .  A
Zr4441     O4442   2.436   1_565  S
Zr4441     O4443   2.436       .  S
Zr4441     O4449   2.375       .  S
Zr4441     O4450   2.346       .  S
Zr4441     O4453   2.349       .  S
Zr4441     O4451   2.394       .  S
O4442      H4462   0.990   1_545  S
O4443      H4463   0.990       .  S
Zr4444     O4445   2.433       .  S
Zr4444     O4446   2.434       .  S
Zr4444     O4450   2.363       .  S
Zr4444     O4449   2.377       .  S
Zr4444     O4454   2.371       .  S
Zr4444     O4452   2.380       .  S
O4445      H4461   0.990       .  S
O4446      H4460   0.990       .  S
O4446      H4470   0.990       .  S
Zr4447     O4450   2.380       .  S
Zr4447     O4452   2.389       .  S
Zr4447     O4453   2.371       .  S
Zr4448     O4449   2.419       .  S
Zr4448     O4451   2.400       .  S
Zr4448     O4454   2.410       .  S
O4449      H4457   0.966       .  S
O4452      H4456   0.966       .  S
O4453      H4458   0.965       .  S
O4471     Zr4483   2.403       .  S
O4471      C4473   1.280       .  A
O4472     Zr4509   2.493       .  S
O4472      C4473   1.298       .  A
C4473      C4681   1.487       .  S
O4474     Zr4486   2.409       .  S
O4474      C4476   1.281       .  A
O4475     Zr4510   2.453       .  S
O4475      C4476   1.292       .  A
C4476      C4688   1.462       .  S
O4477     Zr4486   2.398       .  S
O4477      C4479   1.281       .  A
O4478     Zr4509   2.440       .  S
O4478      C4479   1.290       .  A
C4479      C4871   1.468       .  S
O4480     Zr4483   2.420       .  S
O4480      C4482   1.285       .  A
O4481     Zr4510   2.413       .  S
O4481      C4482   1.284       .  A
C4482      C4798   1.465       .  S
Zr4483     O4484   2.434       .  S
Zr4483     O4485   2.437       .  S
Zr4483     O4489   2.365       .  S
Zr4483     O4490   2.348       .  S
Zr4483     O4513   2.348       .  S
Zr4483     O4515   2.369       .  S
O4484      H4527   0.990       .  S
O4485      H4526   0.990       .  S
O4485      H4530   0.990       .  S
Zr4486     O4487   2.436       .  S
Zr4486     O4488   2.435       .  S
Zr4486     O4490   2.361       .  S
Zr4486     O4489   2.377       .  S
Zr4486     O4514   2.365       .  S
Zr4486     O4516   2.379       .  S
O4487      H4528   0.990       .  S
O4487      H4531   0.990       .  S
O4488      H4521   0.990       .  S
O4489     Zr4509   2.385       .  S
O4490     Zr4510   2.385       .  S
O4490      H4517   0.965       .  S
O4491     Zr4503   2.394       .  S
O4491      C4493   1.270       .  A
O4492     Zr4510   2.427       .  S
O4492      C4493   1.283       .  A
O4494     Zr4506   2.442       .  S
O4494      C4496   1.290       .  A
O4495     Zr4509   2.417       .  S
O4495      C4496   1.287       .  A
C4496      C4808   1.471       .  S
O4497     Zr4506   2.500       .  S
O4497      C4499   1.299       .  A
O4498     Zr4510   2.448       .  S
O4498      C4499   1.294       .  A
C4499      C4701   1.507       .  S
O4500     Zr4503   2.415       .  S
O4500      C4502   1.272       .  A
O4501     Zr4509   2.467       .  S
O4501      C4502   1.286       .  A
C4502      C4711   1.491       .  S
Zr4503     O4505   2.443       .  S
Zr4503     O4511   2.355       .  S
Zr4503     O4512   2.348       .  S
Zr4503     O4515   2.377       .  S
Zr4503     O4513   2.363       .  S
O4504      H4524   0.990       .  S
O4504      H4529   0.990       .  S
O4505      H4525   0.990       .  S
Zr4506     O4507   2.433       .  S
Zr4506     O4508   2.433       .  S
Zr4506     O4512   2.383       .  S
Zr4506     O4511   2.352       .  S
Zr4506     O4516   2.371       .  S
Zr4506     O4514   2.380       .  S
O4507      H4523   0.990       .  S
O4508      H4522   0.990       .  S
O4508      H4532   0.990       .  S
Zr4509     O4512   2.407       .  S
Zr4509     O4514   2.419       .  S
Zr4509     O4515   2.388       .  S
Zr4510     O4511   2.390       .  S
Zr4510     O4513   2.378       .  S
Zr4510     O4516   2.389       .  S
O4511      H4519   0.962       .  S
O4514      H4518   0.966       .  S
O4515      H4520   0.965       .  S
O4533     Zr4545   2.483       .  S
O4533      C4535   1.296       .  A
O4534     Zr4571   2.431       .  S
O4534      C4535   1.291       .  A
C4535      C4771   1.499       .  S
O4536     Zr4548   2.391       .  S
O4536      C4538   1.275       .  A
O4537     Zr4572   2.467       .  S
O4537      C4538   1.293       .  A
C4538      C4758   1.469       .  S
O4539     Zr4548   2.419       .  S
O4539      C4541   1.277       .  A
O4540     Zr4571   2.447       .  S
O4540      C4541   1.285       .  A
O4542     Zr4545   2.486       .  S
O4542      C4544   1.297       .  A
O4543     Zr4572   2.428       .  S
O4543      C4544   1.287       .  A
C4544      C4731   1.494       .  S
Zr4545     O4546   2.434       .  S
Zr4545     O4547   2.434       .  S
Zr4545     O4551   2.364       .  S
Zr4545     O4552   2.384       .  S
Zr4545     O4575   2.373       .  S
Zr4545     O4577   2.395       .  S
O4546      H4589   0.990       .  S
O4547      H4588   0.990       .  S
O4547      H4592   0.990       .  S
Zr4548     O4550   2.442       .  S
Zr4548     O4552   2.371       .  S
Zr4548     O4551   2.352       .  S
Zr4548     O4576   2.362       .  S
Zr4548     O4578   2.367       .  S
O4549      H4590   0.990       .  S
O4549      H4593   0.990       .  S
O4550      H4583   0.989       .  S
O4551     Zr4571   2.385       .  S
O4552     Zr4572   2.396       .  S
O4552      H4579   0.966       .  S
O4553     Zr4565   2.487       .  S
O4553      C4555   1.297       .  A
O4554     Zr4572   2.418       .  S
O4554      C4555   1.285       .  A
C4555      C4668   1.484       .  S
O4556     Zr4568   2.406       .  S
O4556      C4558   1.281       .  A
O4557     Zr4571   2.450       .  S
O4557      C4558   1.291       .  A
C4558      C4718   1.472       .  S
O4559     Zr4568   2.377       .  S
O4559      C4561   1.276       .  A
O4560     Zr4572   2.462       .  S
O4560      C4561   1.292       .  A
C4561      C4691   1.466       .  S
O4562     Zr4565   2.490       .  S
O4562      C4564   1.297       .  A
O4563     Zr4571   2.436       .  S
O4563      C4564   1.292       .  A
C4564      C4678   1.502       .  S
Zr4565     O4566   2.437       .  S
Zr4565     O4567   2.435       .  S
Zr4565     O4573   2.383       .  S
Zr4565     O4574   2.366       .  S
Zr4565     O4577   2.392       .  S
Zr4565     O4575   2.379       .  S
O4566      H4586   0.990       .  S
O4566      H4591   0.990       .  S
O4567      H4587   0.990       .  S
Zr4568     O4569   2.434       .  S
Zr4568     O4570   2.435       .  S
Zr4568     O4574   2.342       .  S
Zr4568     O4573   2.367       .  S
Zr4568     O4578   2.370       .  S
Zr4568     O4576   2.356       .  S
O4569      H4585   0.990       .  S
O4570      H4584   0.990       .  S
O4570      H4594   0.990       .  S
Zr4571     O4574   2.375       .  S
Zr4571     O4576   2.381       .  S
Zr4571     O4577   2.415       .  S
Zr4572     O4573   2.398       .  S
Zr4572     O4575   2.404       .  S
Zr4572     O4578   2.372       .  S
O4573      H4581   0.966       .  S
O4576      H4580   0.965       .  S
O4577      H4582   0.966       .  S
O4595     Zr4607   2.460       .  S
O4595      C4597   1.290       .  A
O4596     Zr4633   2.430       .  S
O4596      C4597   1.287       .  A
C4597      C4791   1.476       .  S
O4598     Zr4610   2.411       .  S
O4598      C4600   1.283       .  A
O4599     Zr4634   2.489       .  S
O4599      C4600   1.299       .  A
C4600      C4671   1.482       .  S
O4601     Zr4610   2.448       .  S
O4601      C4603   1.289       .  A
O4602     Zr4633   2.408       .  S
O4602      C4603   1.284       .  A
C4603      C4888   1.487       .  S
O4604     Zr4607   2.434       .  S
O4604      C4606   1.289       .  A
O4605     Zr4634   2.466       .  S
O4605      C4606   1.295       .  A
C4606      C4741   1.492       .  S
Zr4607     O4608   2.434       .  S
Zr4607     O4609   2.435       .  S
Zr4607     O4613   2.377       .  S
Zr4607     O4614   2.369       .  S
Zr4607     O4637   2.377       .  S
Zr4607     O4639   2.361       .  S
O4608      H4651   0.990       .  S
O4609      H4650   0.990       .  S
O4609      H4654   0.990       .  S
Zr4610     O4611   2.434       .  S
Zr4610     O4612   2.434       .  S
Zr4610     O4614   2.377       .  S
Zr4610     O4613   2.372       .  S
Zr4610     O4638   2.361       .  S
Zr4610     O4640   2.379       .  S
O4611      H4652   0.990       .  S
O4611      H4655   0.990       .  S
O4612      H4645   0.990       .  S
O4613     Zr4633   2.381       .  S
O4614     Zr4634   2.413       .  S
O4614      H4641   0.965       .  S
O4615     Zr4627   2.382       .  S
O4615      C4617   1.276       .  A
O4616     Zr4634   2.523       .  S
O4616      C4617   1.306       .  A
C4617      C4781   1.488       .  S
O4618     Zr4630   2.422       .  S
O4618      C4620   1.286       .  A
O4619     Zr4633   2.424       .  S
O4619      C4620   1.285       .  A
C4620      C4751   1.466       .  S
O4621     Zr4630   2.399       .  S
O4621      C4623   1.280       .  A
O4622     Zr4634   2.509       .  S
O4622      C4623   1.304       .  A
C4623      C4881   1.507       .  S
O4624     Zr4627   2.434       .  S
O4624      C4626   1.288       .  A
O4625     Zr4633   2.413       .  S
O4625      C4626   1.283       .  A
Zr4627     O4628   2.436       .  S
Zr4627     O4629   2.434   1_565  S
Zr4627     O4635   2.381       .  S
Zr4627     O4636   2.344       .  S
Zr4627     O4639   2.349       .  S
Zr4627     O4637   2.371       .  S
O4628      H4648   0.990       .  S
O4628      H4653   0.990       .  S
O4629      H4649   0.990   1_545  S
Zr4630     O4631   2.435       .  S
Zr4630     O4632   2.435       .  S
Zr4630     O4636   2.355       .  S
Zr4630     O4635   2.366       .  S
Zr4630     O4640   2.369       .  S
Zr4630     O4638   2.351       .  S
O4631      H4647   0.990       .  S
O4632      H4646   0.990       .  S
O4632      H4656   0.990       .  S
Zr4633     O4636   2.377       .  S
Zr4633     O4638   2.384       .  S
Zr4633     O4639   2.380       .  S
Zr4634     O4635   2.399       .  S
Zr4634     O4637   2.405       .  S
Zr4634     O4640   2.400       .  S
O4635      H4643   0.966       .  S
O4638      H4642   0.965       .  S
O4639      H4644   0.966       .  S
C4657      C4658   1.405       .  A
C4657      C4662   1.383       .  A
C4657      F4664   1.353       .  S
C4658      C4659   1.406       .  A
C4659      C4660   1.408       .  A
C4659      F4666   1.357       .  S
C4660      C4661   1.416       .  A
C4660      F4665   1.357       .  S
C4661      C4662   1.407       .  A
C4662      F4663   1.359       .  S
C4667      C4668   1.410       .  A
C4667      C4672   1.411       .  A
C4667      F4674   1.358       .  S
C4668      C4669   1.402       .  A
C4669      C4670   1.400       .  A
C4669      F4676   1.358       .  S
C4670      C4671   1.409       .  A
C4670      F4675   1.358       .  S
C4671      C4672   1.406       .  A
C4672      F4673   1.357       .  S
C4677      C4678   1.410       .  A
C4677      C4682   1.397       .  A
C4677      F4684   1.355       .  S
C4678      C4679   1.413       .  A
C4679      C4680   1.417       .  A
C4679      F4686   1.357       .  S
C4680      C4681   1.410       .  A
C4680      F4685   1.357       .  S
C4681      C4682   1.404       .  A
C4682      F4683   1.359       .  S
C4687      C4692   1.394       .  A
C4687      F4694   1.358       .  S
C4688      C4689   1.406       .  A
C4689      F4696   1.358       .  S
C4690      C4691   1.402       .  A
C4690      F4695   1.355       .  S
C4691      C4692   1.410       .  A
C4692      F4693   1.359       .  S
C4697      C4698   1.411       .  A
C4697      F4704   1.358       .  S
C4698      C4699   1.406       .  A
C4699      F4706   1.358       .  S
C4700      F4705   1.358       .  S
C4707      C4708   1.396       .  A
C4707      F4714   1.360       .  S
C4709      C4710   1.413       .  A
C4710      C4711   1.409       .  A
C4710      F4715   1.357       .  S
C4711      C4712   1.411       .  A
C4712      F4713   1.348       .  S
C4717      C4718   1.405       .  A
C4717      C4722   1.402       .  A
C4717      F4724   1.358       .  S
C4718      C4719   1.408       .  A
C4719      C4720   1.396       .  A
C4719      F4726   1.358       .  S
C4720      C4721   1.401       .  A
C4720      F4725   1.358       .  S
C4721      C4722   1.407       .  A
C4727      C4728   1.412       .  A
C4727      C4732   1.402       .  A
C4727      F4734   1.358       .  S
C4728      C4729   1.407       .  A
C4729      C4730   1.412       .  A
C4729      F4736   1.354       .  S
C4730      C4731   1.413       .  A
C4730      F4735   1.358       .  S
C4731      C4732   1.404       .  A
C4732      F4733   1.358       .  S
C4737      C4738   1.407       .  A
C4737      C4742   1.396       .  A
C4737      F4744   1.358       .  S
C4738      C4739   1.409       .  A
C4739      C4740   1.413       .  A
C4739      F4746   1.355       .  S
C4740      C4741   1.410       .  A
C4740      F4745   1.357       .  S
C4741      C4742   1.408       .  A
C4742      F4743   1.359       .  S
C4747      C4748   1.405       .  A
C4747      C4752   1.407       .  A
C4747      F4754   1.357       .  S
C4748      C4749   1.404       .  A
C4749      C4750   1.382       .  A
C4749      F4756   1.359       .  S
C4750      C4751   1.401       .  A
C4750      F4755   1.359       .  S
C4751      C4752   1.408       .  A
C4752      F4753   1.356       .  S
C4757      C4758   1.402       .  A
C4757      F4764   1.356       .  S
C4759      C4760   1.402   1_455  A
C4759      F4766   1.358       .  S
C4760      F4765   1.358       .  S
C4762      F4763   1.355       .  S
C4767      C4768   1.408       .  A
C4767      C4772   1.416   1_655  A
C4767      F4774   1.357       .  S
C4768      C4769   1.405       .  A
C4769      F4776   1.359       .  S
C4770      C4771   1.409       .  A
C4770      F4775   1.356       .  S
C4772      F4773   1.357       .  S
C4777      C4782   1.407       .  A
C4780      C4781   1.410       .  A
C4780      F4785   1.358       .  S
C4781      C4782   1.409       .  A
C4782      F4783   1.358       .  S
C4787      C4792   1.397       .  A
C4787      F4794   1.358       .  S
C4788      C4789   1.411       .  A
C4789      C4790   1.409       .  A
C4789      F4796   1.357       .  S
C4790      F4795   1.357       .  S
C4791      C4792   1.396       .  A
C4792      F4793   1.358       .  S
C4797      C4798   1.404       .  A
C4797      C4802   1.384       .  A
C4797      F4804   1.359       .  S
C4798      C4799   1.405       .  A
C4799      C4800   1.402       .  A
C4799      F4806   1.358       .  S
C4800      C4801   1.407       .  A
C4800      F4805   1.355       .  S
C4801      C4802   1.403       .  A
C4802      F4803   1.359       .  S
C4807      C4808   1.406       .  A
C4807      C4812   1.399       .  A
C4807      F4814   1.356       .  S
C4808      C4809   1.404       .  A
C4809      C4810   1.391       .  A
C4809      F4816   1.358       .  S
C4810      C4811   1.406       .  A
C4810      F4815   1.358       .  S
C4811      C4812   1.406       .  A
C4812      F4813   1.358       .  S
C4817      C4818   1.400   1_554  A
C4817      F4824   1.359   1_554  S
C4818      C4819   1.417       .  A
C4819      F4826   1.357       .  S
C4820      C4821   1.410       .  A
C4820      F4825   1.356       .  S
C4821      C4822   1.411       .  A
C4822      F4823   1.356       .  S
C4827      C4832   1.398       .  A
C4827      F4834   1.358       .  S
C4828      C4829   1.402       .  A
C4829      C4830   1.400       .  A
C4829      F4836   1.357       .  S
C4830      F4835   1.358       .  S
C4831      C4832   1.403       .  A
C4832      F4833   1.358       .  S
C4837      C4838   1.402       .  A
C4837      C4842   1.378       .  A
C4837      F4844   1.359       .  S
C4838      C4839   1.401       .  A
C4839      C4840   1.392       .  A
C4839      F4846   1.358       .  S
C4840      C4841   1.401       .  A
C4841      C4842   1.398       .  A
C4842      F4843   1.360       .  S
C4847      C4848   1.414       .  A
C4847      C4852   1.394       .  A
C4847      F4854   1.358       .  S
C4848      C4849   1.401       .  A
C4849      C4850   1.389       .  A
C4849      F4856   1.358       .  S
C4850      C4851   1.413       .  A
C4850      F4855   1.358       .  S
C4851      C4852   1.401       .  A
C4852      F4853   1.358       .  S
C4857      C4858   1.390       .  A
C4857      C4862   1.384       .  A
C4857      F4864   1.359       .  S
C4858      C4859   1.403       .  A
C4859      C4860   1.390       .  A
C4859      F4866   1.359       .  S
C4860      C4861   1.403       .  A
C4860      F4865   1.358       .  S
C4861      C4862   1.416       .  A
C4862      F4863   1.358       .  S
C4867      C4868   1.402       .  A
C4867      C4872   1.398       .  A
C4867      F4874   1.358       .  S
C4868      C4869   1.397       .  A
C4869      C4870   1.389       .  A
C4869      F4876   1.359       .  S
C4870      C4871   1.410       .  A
C4870      F4875   1.359       .  S
C4871      C4872   1.405       .  A
C4872      F4873   1.355       .  S
C4877      C4878   1.421       .  A
C4877      C4882   1.407       .  A
C4877      F4884   1.358       .  S
C4879      C4880   1.408       .  A
C4879      F4886   1.357       .  S
C4880      C4881   1.424       .  A
C4880      F4885   1.357       .  S
C4882      F4883   1.357       .  S
C4887      C4888   1.410       .  A
C4887      C4892   1.403       .  A
C4887      F4894   1.358       .  S
C4888      C4889   1.410       .  A
C4889      C4890   1.389       .  A
C4889      F4896   1.358       .  S
C4890      C4891   1.411       .  A
C4890      F4895   1.359       .  S
C4891      C4892   1.411       .  A
C4892      F4893   1.358       .  S
