geometry optimzed in LAMMPS
_audit_creation_date              2020-11-30 
_audit_creation_method            'lammps2cif' 
_symmetry_space_group_name_H-M    'P1' 
_symmetry_Int_Tables_number       1 
_symmetry_cell_setting            triclinic 
loop_ 
_symmetry_equiv_pos_as_xyz 
  x,y,z 
_cell_length_a                    57.141248883604916 
_cell_length_b                    57.24696128500461 
_cell_length_c                    46.29551301937168 
_cell_angle_alpha                 91.01592044615602 
_cell_angle_beta                  90.2629115567224 
_cell_angle_gamma                 119.99958536026497 
loop_ 
_atom_site_label 
_atom_site_type_symbol 
_atom_site_fract_x 
_atom_site_fract_y 
_atom_site_fract_z 
_atom_site_charge 
N1          N  0.42063812  0.39245296  0.39332638    -0.05840
N2          N  0.42965161  0.41858463  0.39526771    -0.57960
N3          N  0.37496733  0.33444335  0.42074191    -0.05520
N4          N  0.35412393  0.32871821  0.43742041    -0.60090
N5          N  0.39763770  0.34677620  0.43601887    -0.05120
N6          N  0.39255343  0.34949768  0.46326430    -0.57930
N7          N  0.39801136  0.38016923  0.37809244    -0.04790
N8          N  0.39106288  0.39768431  0.36927750    -0.60440
C9          C  0.41112104  0.42143031  0.38003390     0.96340
C10         C  0.36537662  0.33769131  0.46394965     0.96120
N11         N  0.36473540  0.28004804  0.35156622    -0.06020
N12         N  0.34800945  0.25368876  0.35046148    -0.58540
N13         N  0.37696722  0.33896771  0.32597312    -0.04140
N14         N  0.36672097  0.35070110  0.31012163    -0.59790
N15         N  0.38736768  0.32755317  0.30952194    -0.06050
N16         N  0.38419228  0.33125546  0.28191675    -0.58800
N17         N  0.35470823  0.29198152  0.36780169    -0.03790
N18         N  0.33097876  0.27406926  0.37793754    -0.59880
Mn19       Mn  0.37552747  0.33612877  0.37316251     1.18440
C20         C  0.32720472  0.25037401  0.36706368     0.98420
C21         C  0.37142363  0.34585928  0.28281483     0.99080
N22         N  0.45382839  0.34733456  0.43607800    -0.06070
N23         N  0.46189936  0.35024084  0.46332800    -0.62380
N24         N  0.48608886  0.38092600  0.37813576    -0.04880
N25         N  0.01060416  0.39858723  0.36971596    -0.63060
N26         N  0.47564209  0.39297604  0.39337501    -0.05580
N27         N  0.49277290  0.41911148  0.39571744    -0.62650
N28         N  0.46433827  0.33528034  0.42082384    -0.04480
N29         N  0.47984803  0.32994170  0.43753600    -0.63340
Mn30       Mn  0.43697668  0.36998577  0.41507510     1.10660
C31         C  0.47763056  0.33884797  0.46405435     0.99640
C32         C  0.01424111  0.42218809  0.38068239     0.99720
N33         N  0.44426214  0.32811192  0.30941001    -0.05590
N34         N  0.45103839  0.33177004  0.28180683    -0.60960
N35         N  0.44231587  0.29271743  0.36770578    -0.04910
N36         N  0.44873082  0.27508022  0.37749706    -0.57690
N37         N  0.42026035  0.28052384  0.35142032    -0.06220
N38         N  0.41115659  0.25427454  0.34994580    -0.60530
N39         N  0.46616821  0.33984527  0.32593138    -0.05200
N40         N  0.48808385  0.35175954  0.31013744    -0.57710
Mn41       Mn  0.40388608  0.30354467  0.32946980     1.20190
Mn42       Mn  0.46506396  0.33693023  0.37317269     1.10090
Cl43       Cl  0.42023743  0.33639907  0.37276440    -0.85680
C44         C  0.47844896  0.34671879  0.28277374     0.96650
C45         C  0.42906234  0.25127172  0.36637166     0.96450
N46         N  0.45733923  0.10755207  0.31579462    -0.05840
N47         N  0.46612112  0.11148937  0.28904418    -0.57960
N48         N  0.48783768  0.10892190  0.37743177    -0.05520
N49         N  0.01134168  0.11546925  0.38955777    -0.60090
N50         N  0.47792061  0.08577219  0.36316656    -0.05120
N51         N  0.49443024  0.07602492  0.36518657    -0.57930
N52         N  0.46723114  0.13073396  0.33011820    -0.04790
N53         N  0.48311063  0.15083386  0.31328394    -0.60440
C54         C  0.48173423  0.13850076  0.28765684     0.96340
C55         C  0.01490354  0.09459846  0.38194097     0.96120
N56         N  0.44385881  0.12193277  0.43986788    -0.06020
N57         N  0.44973128  0.12639578  0.46783382    -0.58540
N58         N  0.44319234  0.15304883  0.37913733    -0.04140
N59         N  0.44965302  0.17685835  0.36875025    -0.59790
N60         N  0.42076333  0.14339956  0.39404298    -0.06050
N61         N  0.41143426  0.16036151  0.39392322    -0.58800
N62         N  0.46622338  0.13196363  0.42489009    -0.03790
N63         N  0.48765520  0.14321606  0.44211112    -0.59880
Mn64       Mn  0.46651890  0.13184343  0.37773881     1.18440
C65         C  0.47710954  0.13959929  0.46866965     0.98420
C66         C  0.42954404  0.18095893  0.37797650     0.99080
N67         N  0.42311717  0.03109067  0.36093512    -0.06070
N68         N  0.43179316  0.01366134  0.36055931    -0.62380
N69         N  0.37836122  0.04205576  0.32757116    -0.04880
N70         N  0.35832280  0.02577155  0.30983220    -0.63060
N71         N  0.40161272  0.05203558  0.31414507    -0.05580
N72         N  0.39773921  0.04290968  0.28717357    -0.62650
N73         N  0.39996627  0.02117766  0.37436865    -0.04480
N74         N  0.39233464  0.49673578  0.38350465    -0.63340
Mn75       Mn  0.44011737  0.06909615  0.33813525     1.10660
C76         C  0.41254069  0.49260201  0.37493274     0.99640
C77         C  0.37072206  0.02698652  0.28463764     0.99720
N78         N  0.36585282  0.08839277  0.39275375    -0.05590
N79         N  0.34874486  0.09753400  0.39286973    -0.60960
N80         N  0.37753548  0.04294630  0.42284791    -0.04910
N81         N  0.36695091  0.02161192  0.43936363    -0.57690
N82         N  0.38758616  0.06533246  0.43866032    -0.06220
N83         N  0.38380202  0.05951124  0.46645297    -0.60530
N84         N  0.35609283  0.06596338  0.37704663    -0.05200
N85         N  0.33200751  0.05929122  0.36634255    -0.57710
Mn86       Mn  0.40426984  0.10496801  0.41719982     1.20190
Mn87       Mn  0.37731422  0.04269314  0.37536542     1.10090
Cl88       Cl  0.42196067  0.08722612  0.37697729    -0.85680
C89         C  0.32795981  0.07936830  0.37612485     0.96650
C90         C  0.37098030  0.03214877  0.46640462     0.96450
N91         N  0.06330802  0.38608032  0.18672542    -0.05840
N92         N  0.05656862  0.38346288  0.21435607    -0.57960
N93         N  0.06606540  0.35366263  0.12615635    -0.05520
N94         N  0.05991290  0.32950591  0.11600751    -0.60090
N95         N  0.08811462  0.36391985  0.14241458    -0.05120
N96         N  0.09753992  0.34709366  0.14346819    -0.57930
N97         N  0.04136314  0.37543199  0.17028729    -0.04790
N98         N  0.01945571  0.36561627  0.18611814    -0.60440
C99         C  0.02912894  0.37075001  0.21345601     0.96340
C100        C  0.07993634  0.32595149  0.12671614     0.96120
N101        N  0.05282282  0.39738116  0.06142876    -0.06020
N102        N  0.04484630  0.39254009  0.03408048    -0.58540
N103        N  0.02064969  0.39660252  0.12115917    -0.04140
N104        N  0.49687551  0.38991103  0.13205845    -0.59790
N105        N  0.03054529  0.41949834  0.10754794    -0.06050
N106        N  0.01372384  0.42892972  0.10876183    -0.58800
N107        N  0.04311998  0.37454322  0.07532168    -0.03790
N108        N  0.02825432  0.35385583  0.05760366    -0.59880
Mn109      Mn  0.04246000  0.37436136  0.12301078     1.18440
C110        C  0.03001777  0.36537046  0.03187201     0.98420
C111        C  0.49309614  0.41040954  0.12433774     0.99080
N112        N  0.14282507  0.41917985  0.14359545    -0.06070
N113        N  0.16012984  0.41025466  0.14429316    -0.62380
N114        N  0.13016095  0.46457592  0.17300237    -0.04880
N115        N  0.14141756  0.48620160  0.19010909    -0.63060
N116        N  0.11991167  0.44247883  0.18820368    -0.05580
N117        N  0.12424310  0.44872145  0.21612777    -0.62650
N118        N  0.15253881  0.44122896  0.12826460    -0.04480
N119        N  0.17670991  0.44782209  0.11845215    -0.63340
Mn120      Mn  0.10371741  0.40268340  0.16615668     1.10660
C121        C  0.18096724  0.42816962  0.12837816     0.99640
C122        C  0.13753587  0.47604230  0.21679514     0.99720
N123        N  0.08482235  0.47470885  0.10938704    -0.05590
N124        N  0.07505851  0.49126575  0.11041446    -0.60960
N125        N  0.13102028  0.46456517  0.07780149    -0.04910
N126        N  0.15127924  0.48138360  0.06153417    -0.57690
N127        N  0.10806605  0.45416332  0.06301902    -0.06220
N128        N  0.11241103  0.46357114  0.03657339    -0.60530
N129        N  0.10769564  0.48495929  0.12412812    -0.05200
N130        N  0.11402411  0.00869474  0.13558561    -0.57710
Mn131      Mn  0.06894248  0.43646572  0.08488831     1.20190
Mn132      Mn  0.13100306  0.46414771  0.12564387     1.10090
Cl133      Cl  0.08674994  0.41927768  0.12469108    -0.85680
C134        C  0.09333830  0.01210006  0.12706245     0.96650
C135        C  0.13940170  0.48011329  0.03576725     0.96450
N136        N  0.22814840  0.14268253  0.39624396    -0.05840
N137        N  0.25448886  0.15951097  0.39595716    -0.57960
N138        N  0.17130155  0.13106844  0.42695253    -0.05520
N139        N  0.16087997  0.14190293  0.44422952    -0.60090
N140        N  0.18370130  0.12100225  0.44193022    -0.05120
N141        N  0.18208409  0.12501427  0.46993046    -0.57930
N142        N  0.21530987  0.15234804  0.38129559    -0.04790
N143        N  0.23266636  0.17603219  0.37070836    -0.60440
C144        C  0.25692424  0.18003666  0.37987129     0.96340
C145        C  0.16772295  0.13799567  0.47081120     0.96120
N146        N  0.11321756  0.08530714  0.36474924    -0.06020
N147        N  0.08694864  0.07566975  0.36632833    -0.58540
N148        N  0.16863461  0.13044915  0.33198187    -0.04140
N149        N  0.17217044  0.15049016  0.31533876    -0.59790
N150        N  0.15537272  0.10729011  0.31757050    -0.06050
N151        N  0.14989150  0.11120271  0.29097968    -0.58800
N152        N  0.12649438  0.10837252  0.37917063    -0.03790
N153        N  0.10956007  0.11498579  0.39095911    -0.59880
Mn154      Mn  0.17075692  0.13125810  0.37970912     1.18440
C155        C  0.08508328  0.09421904  0.38299544     0.98420
C156        C  0.16083815  0.13816926  0.28973285     0.99080
N157        N  0.18349198  0.06463532  0.44058878    -0.06070
N158        N  0.18182533  0.05882479  0.46835480    -0.62380
N159        N  0.21516777  0.06529838  0.37910543    -0.04880
N160        N  0.23245720  0.05879658  0.36796805    -0.63060
N161        N  0.22804505  0.08770684  0.39484008    -0.05580
N162        N  0.25434149  0.09699180  0.39457473    -0.62650
N163        N  0.17094684  0.04226589  0.42476257    -0.04480
N164        N  0.16042087  0.02092401  0.44125584    -0.63340
Mn165      Mn  0.20633201  0.10424294  0.41930884     1.10660
C166        C  0.16729941  0.03148137  0.46827476     0.99640
C167        C  0.25673072  0.07891764  0.37756373     0.99720
N168        N  0.15577347  0.05183260  0.31605754    -0.05590
N169        N  0.15076580  0.04300314  0.28897168    -0.60960
N170        N  0.12636161  0.02071060  0.37608773    -0.04910
N171        N  0.10929373  0.49638100  0.38535087    -0.57690
N172        N  0.11328802  0.03082734  0.36254942    -0.06220
N173        N  0.08708729  0.01371959  0.36224071    -0.60530
N174        N  0.16898268  0.04177530  0.32961806    -0.05200
N175        N  0.17298347  0.02577767  0.31188694    -0.57710
Mn176      Mn  0.13432913  0.06878951  0.33987589     1.20190
Mn177      Mn  0.17064825  0.04211615  0.37730477     1.10090
Cl178      Cl  0.17082918  0.08674894  0.37888610    -0.85680
C179        C  0.16198452  0.02721860  0.28655022     0.96650
C180        C  0.08500136  0.49259775  0.37674064     0.96450
N181        N  0.03077036  0.11194728  0.11200490    -0.05840
N182        N  0.01413528  0.08569986  0.11234850    -0.57960
N183        N  0.04224487  0.16820625  0.08081344    -0.05520
N184        N  0.02659252  0.17291786  0.06365399    -0.60090
N185        N  0.05228665  0.15521640  0.06646541    -0.05120
N186        N  0.04369697  0.15097074  0.03935077    -0.57930
N187        N  0.02072334  0.12484331  0.12638683    -0.04790
N188        N  0.49687298  0.10758122  0.13684709    -0.60440
C189        C  0.49335104  0.08335646  0.12812034     0.96340
C190        C  0.02814883  0.16251135  0.03781972     0.96120
N191        N  0.08829173  0.22628413  0.14617019    -0.06020
N192        N  0.09781066  0.25257444  0.14602628    -0.58540
N193        N  0.04249079  0.16923290  0.17563834    -0.04140
N194        N  0.02113441  0.15888235  0.19229682    -0.59790
N195        N  0.06490855  0.18173839  0.19127177    -0.06050
N196        N  0.05916812  0.18020004  0.21907726    -0.58800
N197        N  0.06576608  0.21352287  0.13071271    -0.03790
N198        N  0.05944412  0.23085964  0.11982515    -0.59880
Mn199      Mn  0.04233773  0.16915578  0.12835541     1.18440
C200        C  0.07975517  0.25504236  0.12933502     0.98420
C201        C  0.03181413  0.16583522  0.21918677     0.99080
N202        N  0.10786860  0.15453895  0.06726443    -0.06070
N203        N  0.11233525  0.14987532  0.04041942    -0.62380
N204        N  0.10772634  0.12410476  0.12777640    -0.04880
N205        N  0.11410727  0.10673211  0.13839618    -0.63060
N206        N  0.08493593  0.11139902  0.11286571    -0.05580
N207        N  0.07523118  0.08512520  0.11300705    -0.62650
N208        N  0.13078774  0.16718830  0.08209209    -0.04480
N209        N  0.15119815  0.17123349  0.06551425    -0.63340
Mn210      Mn  0.06890709  0.13319089  0.08914838     1.10660
C211        C  0.13939451  0.16078735  0.03953053     0.99640
C212        C  0.09345285  0.08260924  0.12924992     0.99720
N213        N  0.12073293  0.18125833  0.19221735    -0.05590
N214        N  0.12466730  0.17975317  0.22017502    -0.60960
N215        N  0.15263846  0.21267087  0.13188912    -0.04910
N216        N  0.17634183  0.22970399  0.12097323    -0.57690
N217        N  0.14310665  0.22577650  0.14688142    -0.06220
N218        N  0.16009548  0.25202438  0.14638226    -0.60530
N219        N  0.13044904  0.16843203  0.17705836    -0.05200
N220        N  0.14103345  0.15788259  0.19420285    -0.57710
Mn221      Mn  0.10453084  0.20429921  0.16999664     1.20190
Mn222      Mn  0.13104770  0.16831163  0.12970633     1.10090
Cl223      Cl  0.08677340  0.16887736  0.12920361    -0.85680
C224        C  0.13725953  0.16503187  0.22090150     0.96650
C225        C  0.18051571  0.25407475  0.12999840     0.96450
N226        N  0.39423522  0.41925914  0.10706179    -0.05840
N227        N  0.42051225  0.42872317  0.10844631    -0.57960
N228        N  0.33666200  0.37407492  0.07456625    -0.05520
N229        N  0.33050900  0.35324796  0.05702750    -0.60090
N230        N  0.34982436  0.39682384  0.06052855    -0.05120
N231        N  0.35267886  0.39177192  0.03323197    -0.57930
N232        N  0.38124940  0.39641888  0.12077525    -0.04790
N233        N  0.39838497  0.38980468  0.13190217    -0.60440
C234        C  0.42267111  0.41030131  0.12422633     0.96340
C235        C  0.34010871  0.36457586  0.03124333     0.96120
N236        N  0.28084048  0.36343283  0.14058590    -0.06020
N237        N  0.25461929  0.34641670  0.14176123    -0.58540
N238        N  0.33906495  0.37525980  0.16943017    -0.04140
N239        N  0.35084844  0.36533118  0.18571794    -0.59790
N240        N  0.32757910  0.38585635  0.18540701    -0.06050
N241        N  0.33124200  0.38311275  0.21316900    -0.58800
N242        N  0.29270751  0.35309394  0.12481439    -0.03790
N243        N  0.27476433  0.32866986  0.11512399    -0.59880
Mn244      Mn  0.33711727  0.37403098  0.12219010     1.18440
C245        C  0.25114610  0.32505867  0.12557859     0.98420
C246        C  0.34590747  0.37038450  0.21283325     0.99080
N247        N  0.35158284  0.45378142  0.06123478    -0.06070
N248        N  0.35723772  0.46353655  0.03494267    -0.62380
N249        N  0.38224613  0.48455739  0.12270203    -0.04880
N250        N  0.39944554  0.00835781  0.13424157    -0.63060
N251        N  0.39509876  0.47447878  0.10833107    -0.05580
N252        N  0.42141922  0.49128193  0.10970445    -0.62650
N253        N  0.33891172  0.46415134  0.07563449    -0.04480
N254        N  0.33601051  0.48129372  0.05922457    -0.63340
Mn255      Mn  0.37284195  0.43609012  0.08379267     1.10660
C256        C  0.34705832  0.48027586  0.03377908     0.99640
C257        C  0.42368219  0.01204296  0.12619144     0.99720
N258        N  0.32746632  0.44209607  0.18621791    -0.05590
N259        N  0.32957958  0.44834306  0.21414301    -0.60960
N260        N  0.29354293  0.44056772  0.12576687    -0.04910
N261        N  0.27587975  0.44732076  0.11638067    -0.57690
N262        N  0.28132222  0.41853855  0.14112777    -0.06220
N263        N  0.25514626  0.40977446  0.14224797    -0.60530
N264        N  0.33931823  0.46417894  0.17101139    -0.05200
N265        N  0.34989955  0.48581115  0.18812554    -0.57710
Mn266      Mn  0.30391658  0.40228328  0.16415162     1.20190
Mn267      Mn  0.33813277  0.46363736  0.12359488     1.10090
Cl268      Cl  0.33778320  0.41892758  0.12322360    -0.85680
C269        C  0.34373236  0.47566556  0.21482697     0.96650
C270        C  0.25205812  0.42772496  0.12654692     0.96450
C271        C  0.46895651  0.05827538  0.13142930    -0.12990
C272        C  0.44840952  0.03686120  0.13066656    -0.14550
C273        C  0.20505398  0.27898730  0.12542578    -0.12990
C274        C  0.22606625  0.29998515  0.12390711    -0.14550
C275        C  0.15448407  0.15073968  0.26671103    -0.12990
C276        C  0.14673054  0.15843944  0.24665308    -0.14550
C277        C  0.16074451  0.14730197  0.49657864    -0.12990
C278        C  0.15246130  0.15482335  0.01649970    -0.14550
C279        C  0.15222428  0.49930309  0.01315529    -0.12990
C280        C  0.16028659  0.01503732  0.49355478    -0.14550
C281        C  0.14765453  0.49276230  0.24247485    -0.12990
C282        C  0.15570057  0.00846253  0.26277190    -0.14550
C283        C  0.09300665  0.05763129  0.13228791    -0.12990
C284        C  0.09284756  0.03658106  0.13152058    -0.14550
C285        C  0.08028447  0.28009028  0.12534055    -0.12990
C286        C  0.08026663  0.30110120  0.12444534    -0.14550
C287        C  0.20591131  0.42796670  0.12519136    -0.12990
C288        C  0.22701116  0.42791220  0.12453110    -0.14550
C289        C  0.46851239  0.41061312  0.12846345    -0.12990
C290        C  0.44750178  0.41055099  0.12846045    -0.14550
C291        C  0.00943677  0.15688151  0.01439505    -0.12990
C292        C  0.49360645  0.14930300  0.49437215    -0.14550
C293        C  0.01554760  0.15909805  0.24456280    -0.12990
C294        C  0.50017656  0.15121857  0.26450869    -0.14550
C295        C  0.36173097  0.01562325  0.49171209    -0.12990
C296        C  0.35393405  0.49973938  0.01123247    -0.14550
C297        C  0.35821722  0.00807859  0.26088735    -0.12990
C298        C  0.35053049  0.49239266  0.24054730    -0.14550
C299        C  0.06031065  0.09409373  0.38726945    -0.12990
C300        C  0.03936886  0.09421809  0.38692947    -0.14610
C301        C  0.28175753  0.07916992  0.37360014    -0.12990
C302        C  0.30289937  0.07927183  0.37310324    -0.14550
C303        C  0.49595749  0.34347741  0.48777920    -0.12990
C304        C  0.01197741  0.35161804  0.00775705    -0.14550
C305        C  0.49588822  0.35521285  0.25799009    -0.12990
C306        C  0.01171137  0.36271210  0.23825752    -0.14550
C307        C  0.41138217  0.44635761  0.37813766    -0.12990
C308        C  0.41186493  0.46750355  0.37718809    -0.14550
C309        C  0.42836493  0.22603158  0.37009685    -0.12990
C310        C  0.42863516  0.20528513  0.37335271    -0.14550
C311        C  0.06024032  0.46780241  0.37908040    -0.12990
C312        C  0.03916338  0.44699677  0.37964546    -0.14550
C313        C  0.28217877  0.20417515  0.37489975    -0.12990
C314        C  0.30305840  0.22493075  0.37123572    -0.14550
C315        C  0.35171352  0.34224326  0.48751749    -0.12990
C316        C  0.34402286  0.35056473  0.00732080    -0.14550
C317        C  0.35471920  0.36215114  0.23796782    -0.12990
C318        C  0.36266545  0.35450801  0.25796911    -0.14550
N319        N  0.42063812  0.39245296  0.89332637    -0.05840
N320        N  0.42965161  0.41858464  0.89526770    -0.57960
N321        N  0.37496733  0.33444335  0.92074191    -0.05520
N322        N  0.35412393  0.32871821  0.93742041    -0.60090
N323        N  0.39763770  0.34677620  0.93601887    -0.05120
N324        N  0.39255342  0.34949769  0.96326430    -0.57930
N325        N  0.39801135  0.38016923  0.87809243    -0.04790
N326        N  0.39106287  0.39768431  0.86927749    -0.60440
C327        C  0.41112103  0.42143031  0.88003390     0.96340
C328        C  0.36537662  0.33769131  0.96394964     0.96120
N329        N  0.36473540  0.28004804  0.85156622    -0.06020
N330        N  0.34800945  0.25368876  0.85046148    -0.58540
N331        N  0.37696721  0.33896771  0.82597312    -0.04140
N332        N  0.36672096  0.35070109  0.81012163    -0.59790
N333        N  0.38736768  0.32755317  0.80952194    -0.06050
N334        N  0.38419228  0.33125546  0.78191675    -0.58800
N335        N  0.35470823  0.29198153  0.86780169    -0.03790
N336        N  0.33097876  0.27406926  0.87793754    -0.59880
Mn337      Mn  0.37552747  0.33612877  0.87316251     1.18440
C338        C  0.32720472  0.25037401  0.86706368     0.98420
C339        C  0.37142362  0.34585928  0.78281483     0.99080
N340        N  0.45382839  0.34733457  0.93607800    -0.06070
N341        N  0.46189936  0.35024086  0.96332799    -0.62380
N342        N  0.48608886  0.38092601  0.87813576    -0.04880
N343        N  0.01060417  0.39858723  0.86971596    -0.63060
N344        N  0.47564208  0.39297605  0.89337500    -0.05580
N345        N  0.49277290  0.41911148  0.89571743    -0.62650
N346        N  0.46433827  0.33528035  0.92082384    -0.04480
N347        N  0.47984804  0.32994171  0.93753600    -0.63340
Mn348      Mn  0.43697668  0.36998578  0.91507509     1.10660
C349        C  0.47763056  0.33884799  0.96405435     0.99640
C350        C  0.01424112  0.42218810  0.88068238     0.99720
N351        N  0.44426214  0.32811192  0.80941001    -0.05590
N352        N  0.45103839  0.33177004  0.78180683    -0.60960
N353        N  0.44231587  0.29271743  0.86770578    -0.04910
N354        N  0.44873082  0.27508022  0.87749706    -0.57690
N355        N  0.42026035  0.28052384  0.85142032    -0.06220
N356        N  0.41115659  0.25427454  0.84994580    -0.60530
N357        N  0.46616820  0.33984527  0.82593138    -0.05200
N358        N  0.48808385  0.35175954  0.81013743    -0.57710
Mn359      Mn  0.40388608  0.30354467  0.82946981     1.20190
Mn360      Mn  0.46506396  0.33693023  0.87317269     1.10090
Cl361      Cl  0.42023743  0.33639908  0.87276440    -0.85680
C362        C  0.47844896  0.34671879  0.78277374     0.96650
C363        C  0.42906234  0.25127172  0.86637166     0.96450
N364        N  0.45733923  0.10755207  0.81579462    -0.05840
N365        N  0.46612112  0.11148938  0.78904418    -0.57960
N366        N  0.48783769  0.10892190  0.87743177    -0.05520
N367        N  0.01134167  0.11546924  0.88955777    -0.60090
N368        N  0.47792062  0.08577219  0.86316656    -0.05120
N369        N  0.49443024  0.07602492  0.86518657    -0.57930
N370        N  0.46723114  0.13073396  0.83011820    -0.04790
N371        N  0.48311064  0.15083386  0.81328395    -0.60440
C372        C  0.48173423  0.13850076  0.78765684     0.96340
C373        C  0.01490354  0.09459845  0.88194097     0.96120
N374        N  0.44385882  0.12193277  0.93986788    -0.06020
N375        N  0.44973128  0.12639578  0.96783383    -0.58540
N376        N  0.44319235  0.15304884  0.87913733    -0.04140
N377        N  0.44965302  0.17685836  0.86875025    -0.59790
N378        N  0.42076334  0.14339956  0.89404299    -0.06050
N379        N  0.41143427  0.16036151  0.89392323    -0.58800
N380        N  0.46622338  0.13196363  0.92489009    -0.03790
N381        N  0.48765520  0.14321606  0.94211112    -0.59880
Mn382      Mn  0.46651890  0.13184344  0.87773882     1.18440
C383        C  0.47710954  0.13959929  0.96866966     0.98420
C384        C  0.42954404  0.18095893  0.87797650     0.99080
N385        N  0.42311717  0.03109067  0.86093512    -0.06070
N386        N  0.43179316  0.01366135  0.86055931    -0.62380
N387        N  0.37836122  0.04205577  0.82757116    -0.04880
N388        N  0.35832280  0.02577155  0.80983220    -0.63060
N389        N  0.40161273  0.05203559  0.81414507    -0.05580
N390        N  0.39773921  0.04290967  0.78717357    -0.62650
N391        N  0.39996628  0.02117766  0.87436865    -0.04480
N392        N  0.39233464  0.49673578  0.88350465    -0.63340
Mn393      Mn  0.44011737  0.06909615  0.83813526     1.10660
C394        C  0.41254069  0.49260201  0.87493274     0.99640
C395        C  0.37072207  0.02698651  0.78463764     0.99720
N396        N  0.36585282  0.08839277  0.89275375    -0.05590
N397        N  0.34874486  0.09753400  0.89286973    -0.60960
N398        N  0.37753548  0.04294630  0.92284791    -0.04910
N399        N  0.36695091  0.02161192  0.93936363    -0.57690
N400        N  0.38758616  0.06533245  0.93866032    -0.06220
N401        N  0.38380202  0.05951124  0.96645297    -0.60530
N402        N  0.35609283  0.06596338  0.87704663    -0.05200
N403        N  0.33200751  0.05929122  0.86634256    -0.57710
Mn404      Mn  0.40426985  0.10496801  0.91719982     1.20190
Mn405      Mn  0.37731422  0.04269314  0.87536542     1.10090
Cl406      Cl  0.42196067  0.08722612  0.87697729    -0.85680
C407        C  0.32795981  0.07936830  0.87612485     0.96650
C408        C  0.37098031  0.03214877  0.96640462     0.96450
N409        N  0.06330801  0.38608031  0.68672542    -0.05840
N410        N  0.05656862  0.38346288  0.71435606    -0.57960
N411        N  0.06606539  0.35366262  0.62615634    -0.05520
N412        N  0.05991289  0.32950590  0.61600750    -0.60090
N413        N  0.08811461  0.36391984  0.64241457    -0.05120
N414        N  0.09753991  0.34709366  0.64346818    -0.57930
N415        N  0.04136313  0.37543199  0.67028729    -0.04790
N416        N  0.01945570  0.36561627  0.68611814    -0.60440
C417        C  0.02912894  0.37075000  0.71345600     0.96340
C418        C  0.07993633  0.32595148  0.62671614     0.96120
N419        N  0.05282281  0.39738115  0.56142875    -0.06020
N420        N  0.04484629  0.39254008  0.53408048    -0.58540
N421        N  0.02064968  0.39660252  0.62115917    -0.04140
N422        N  0.49687551  0.38991102  0.63205845    -0.59790
N423        N  0.03054528  0.41949834  0.60754794    -0.06050
N424        N  0.01372383  0.42892971  0.60876183    -0.58800
N425        N  0.04311997  0.37454322  0.57532168    -0.03790
N426        N  0.02825430  0.35385582  0.55760366    -0.59880
Mn427      Mn  0.04245999  0.37436135  0.62301078     1.18440
C428        C  0.03001775  0.36537045  0.53187201     0.98420
C429        C  0.49309613  0.41040953  0.62433774     0.99080
N430        N  0.14282507  0.41917984  0.64359545    -0.06070
N431        N  0.16012983  0.41025466  0.64429316    -0.62380
N432        N  0.13016094  0.46457591  0.67300236    -0.04880
N433        N  0.14141755  0.48620159  0.69010909    -0.63060
N434        N  0.11991166  0.44247883  0.68820368    -0.05580
N435        N  0.12424309  0.44872144  0.71612777    -0.62650
N436        N  0.15253881  0.44122895  0.62826460    -0.04480
N437        N  0.17670991  0.44782208  0.61845215    -0.63340
Mn438      Mn  0.10371740  0.40268339  0.66615668     1.10660
C439        C  0.18096724  0.42816961  0.62837816     0.99640
C440        C  0.13753586  0.47604230  0.71679514     0.99720
N441        N  0.08482234  0.47470884  0.60938704    -0.05590
N442        N  0.07505850  0.49126574  0.61041445    -0.60960
N443        N  0.13102027  0.46456516  0.57780149    -0.04910
N444        N  0.15127923  0.48138359  0.56153417    -0.57690
N445        N  0.10806604  0.45416331  0.56301902    -0.06220
N446        N  0.11241101  0.46357113  0.53657338    -0.60530
N447        N  0.10769563  0.48495928  0.62412811    -0.05200
N448        N  0.11402410  0.00869473  0.63558561    -0.57710
Mn449      Mn  0.06894247  0.43646572  0.58488831     1.20190
Mn450      Mn  0.13100305  0.46414771  0.62564387     1.10090
Cl451      Cl  0.08674993  0.41927768  0.62469108    -0.85680
C452        C  0.09333829  0.01210005  0.62706244     0.96650
C453        C  0.13940169  0.48011327  0.53576724     0.96450
N454        N  0.22814840  0.14268254  0.89624396    -0.05840
N455        N  0.25448886  0.15951097  0.89595715    -0.57960
N456        N  0.17130154  0.13106844  0.92695253    -0.05520
N457        N  0.16087997  0.14190293  0.94422951    -0.60090
N458        N  0.18370130  0.12100225  0.94193021    -0.05120
N459        N  0.18208409  0.12501427  0.96993045    -0.57930
N460        N  0.21530986  0.15234805  0.88129558    -0.04790
N461        N  0.23266635  0.17603219  0.87070835    -0.60440
C462        C  0.25692423  0.18003666  0.87987128     0.96340
C463        C  0.16772295  0.13799567  0.97081120     0.96120
N464        N  0.11321755  0.08530713  0.86474923    -0.06020
N465        N  0.08694863  0.07566974  0.86632833    -0.58540
N466        N  0.16863461  0.13044915  0.83198187    -0.04140
N467        N  0.17217043  0.15049016  0.81533876    -0.59790
N468        N  0.15537272  0.10729011  0.81757050    -0.06050
N469        N  0.14989149  0.11120271  0.79097968    -0.58800
N470        N  0.12649438  0.10837251  0.87917063    -0.03790
N471        N  0.10956006  0.11498578  0.89095911    -0.59880
Mn472      Mn  0.17075692  0.13125810  0.87970912     1.18440
C473        C  0.08508327  0.09421903  0.88299544     0.98420
C474        C  0.16083814  0.13816926  0.78973285     0.99080
N475        N  0.18349199  0.06463533  0.94058878    -0.06070
N476        N  0.18182533  0.05882480  0.96835480    -0.62380
N477        N  0.21516778  0.06529839  0.87910543    -0.04880
N478        N  0.23245720  0.05879659  0.86796804    -0.63060
N479        N  0.22804506  0.08770685  0.89484008    -0.05580
N480        N  0.25434149  0.09699180  0.89457473    -0.62650
N481        N  0.17094684  0.04226590  0.92476257    -0.04480
N482        N  0.16042087  0.02092401  0.94125584    -0.63340
Mn483      Mn  0.20633201  0.10424294  0.91930883     1.10660
C484        C  0.16729941  0.03148137  0.96827476     0.99640
C485        C  0.25673073  0.07891764  0.87756373     0.99720
N486        N  0.15577347  0.05183260  0.81605754    -0.05590
N487        N  0.15076580  0.04300314  0.78897168    -0.60960
N488        N  0.12636161  0.02071060  0.87608773    -0.04910
N489        N  0.10929374  0.49638100  0.88535086    -0.57690
N490        N  0.11328802  0.03082734  0.86254942    -0.06220
N491        N  0.08708729  0.01371959  0.86224071    -0.60530
N492        N  0.16898268  0.04177530  0.82961806    -0.05200
N493        N  0.17298347  0.02577767  0.81188694    -0.57710
Mn494      Mn  0.13432913  0.06878951  0.83987589     1.20190
Mn495      Mn  0.17064826  0.04211615  0.87730476     1.10090
Cl496      Cl  0.17082918  0.08674895  0.87888610    -0.85680
C497        C  0.16198452  0.02721860  0.78655021     0.96650
C498        C  0.08500137  0.49259775  0.87674063     0.96450
N499        N  0.03077035  0.11194728  0.61200490    -0.05840
N500        N  0.01413528  0.08569985  0.61234851    -0.57960
N501        N  0.04224487  0.16820625  0.58081344    -0.05520
N502        N  0.02659252  0.17291785  0.56365398    -0.60090
N503        N  0.05228665  0.15521639  0.56646541    -0.05120
N504        N  0.04369696  0.15097073  0.53935076    -0.57930
N505        N  0.02072333  0.12484331  0.62638683    -0.04790
N506        N  0.49687298  0.10758122  0.63684710    -0.60440
C507        C  0.49335104  0.08335646  0.62812035     0.96340
C508        C  0.02814883  0.16251135  0.53781972     0.96120
N509        N  0.08829172  0.22628413  0.64617018    -0.06020
N510        N  0.09781066  0.25257444  0.64602627    -0.58540
N511        N  0.04249078  0.16923290  0.67563833    -0.04140
N512        N  0.02113440  0.15888235  0.69229682    -0.59790
N513        N  0.06490854  0.18173839  0.69127176    -0.06050
N514        N  0.05916812  0.18020005  0.71907726    -0.58800
N515        N  0.06576608  0.21352286  0.63071271    -0.03790
N516        N  0.05944411  0.23085963  0.61982514    -0.59880
Mn517      Mn  0.04233772  0.16915578  0.62835540     1.18440
C518        C  0.07975516  0.25504236  0.62933501     0.98420
C519        C  0.03181412  0.16583523  0.71918676     0.99080
N520        N  0.10786860  0.15453894  0.56726443    -0.06070
N521        N  0.11233525  0.14987531  0.54041942    -0.62380
N522        N  0.10772634  0.12410475  0.62777640    -0.04880
N523        N  0.11410726  0.10673210  0.63839618    -0.63060
N524        N  0.08493592  0.11139901  0.61286571    -0.05580
N525        N  0.07523117  0.08512519  0.61300705    -0.62650
N526        N  0.13078774  0.16718829  0.58209209    -0.04480
N527        N  0.15119814  0.17123348  0.56551425    -0.63340
Mn528      Mn  0.06890709  0.13319088  0.58914838     1.10660
C529        C  0.13939450  0.16078734  0.53953053     0.99640
C530        C  0.09345284  0.08260923  0.62924993     0.99720
N531        N  0.12073292  0.18125832  0.69221735    -0.05590
N532        N  0.12466729  0.17975317  0.72017502    -0.60960
N533        N  0.15263845  0.21267086  0.63188912    -0.04910
N534        N  0.17634183  0.22970398  0.62097323    -0.57690
N535        N  0.14310665  0.22577650  0.64688141    -0.06220
N536        N  0.16009547  0.25202437  0.64638226    -0.60530
N537        N  0.13044903  0.16843202  0.67705836    -0.05200
N538        N  0.14103343  0.15788258  0.69420285    -0.57710
Mn539      Mn  0.10453084  0.20429921  0.66999664     1.20190
Mn540      Mn  0.13104770  0.16831163  0.62970633     1.10090
Cl541      Cl  0.08677339  0.16887736  0.62920360    -0.85680
C542        C  0.13725952  0.16503187  0.72090150     0.96650
C543        C  0.18051571  0.25407474  0.62999840     0.96450
N544        N  0.39423522  0.41925914  0.60706179    -0.05840
N545        N  0.42051225  0.42872317  0.60844631    -0.57960
N546        N  0.33666200  0.37407492  0.57456625    -0.05520
N547        N  0.33050900  0.35324796  0.55702750    -0.60090
N548        N  0.34982436  0.39682384  0.56052855    -0.05120
N549        N  0.35267887  0.39177192  0.53323197    -0.57930
N550        N  0.38124940  0.39641888  0.62077526    -0.04790
N551        N  0.39838498  0.38980468  0.63190218    -0.60440
C552        C  0.42267111  0.41030132  0.62422633     0.96340
C553        C  0.34010872  0.36457586  0.53124334     0.96120
N554        N  0.28084048  0.36343283  0.64058590    -0.06020
N555        N  0.25461929  0.34641670  0.64176123    -0.58540
N556        N  0.33906495  0.37525981  0.66943017    -0.04140
N557        N  0.35084844  0.36533118  0.68571795    -0.59790
N558        N  0.32757910  0.38585635  0.68540701    -0.06050
N559        N  0.33124200  0.38311275  0.71316900    -0.58800
N560        N  0.29270751  0.35309394  0.62481439    -0.03790
N561        N  0.27476433  0.32866985  0.61512400    -0.59880
Mn562      Mn  0.33711727  0.37403098  0.62219011     1.18440
C563        C  0.25114610  0.32505866  0.62557860     0.98420
C564        C  0.34590747  0.37038450  0.71283325     0.99080
N565        N  0.35158284  0.45378142  0.56123478    -0.06070
N566        N  0.35723772  0.46353655  0.53494267    -0.62380
N567        N  0.38224612  0.48455739  0.62270203    -0.04880
N568        N  0.39944554  0.00835781  0.63424158    -0.63060
N569        N  0.39509876  0.47447879  0.60833107    -0.05580
N570        N  0.42141922  0.49128193  0.60970445    -0.62650
N571        N  0.33891171  0.46415134  0.57563449    -0.04480
N572        N  0.33601051  0.48129371  0.55922457    -0.63340
Mn573      Mn  0.37284195  0.43609012  0.58379267     1.10660
C574        C  0.34705832  0.48027586  0.53377908     0.99640
C575        C  0.42368219  0.01204295  0.62619145     0.99720
N576        N  0.32746631  0.44209607  0.68621791    -0.05590
N577        N  0.32957957  0.44834306  0.71414301    -0.60960
N578        N  0.29354292  0.44056772  0.62576687    -0.04910
N579        N  0.27587975  0.44732076  0.61638067    -0.57690
N580        N  0.28132222  0.41853855  0.64112776    -0.06220
N581        N  0.25514625  0.40977446  0.64224796    -0.60530
N582        N  0.33931822  0.46417894  0.67101139    -0.05200
N583        N  0.34989954  0.48581116  0.68812554    -0.57710
Mn584      Mn  0.30391657  0.40228328  0.66415162     1.20190
Mn585      Mn  0.33813276  0.46363736  0.62359488     1.10090
Cl586      Cl  0.33778320  0.41892758  0.62322360    -0.85680
C587        C  0.34373235  0.47566556  0.71482697     0.96650
C588        C  0.25205812  0.42772496  0.62654692     0.96450
C589        C  0.46895651  0.05827537  0.63142932    -0.12990
C590        C  0.44840952  0.03686120  0.63066658    -0.14550
C591        C  0.20505398  0.27898730  0.62542578    -0.12990
C592        C  0.22606625  0.29998514  0.62390711    -0.14550
C593        C  0.15448405  0.15073968  0.76671103    -0.12990
C594        C  0.14673053  0.15843944  0.74665308    -0.14550
C595        C  0.16074451  0.14730197  0.99657864    -0.12990
C596        C  0.15246130  0.15482335  0.51649971    -0.14550
C597        C  0.15222427  0.49930308  0.51315528    -0.12990
C598        C  0.16028660  0.01503732  0.99355478    -0.14550
C599        C  0.14765452  0.49276230  0.74247485    -0.12990
C600        C  0.15570057  0.00846253  0.76277190    -0.14550
C601        C  0.09300663  0.05763128  0.63228791    -0.12990
C602        C  0.09284755  0.03658105  0.63152058    -0.14550
C603        C  0.08028446  0.28009027  0.62534054    -0.12990
C604        C  0.08026662  0.30110120  0.62444534    -0.14550
C605        C  0.20591130  0.42796670  0.62519136    -0.12990
C606        C  0.22701115  0.42791220  0.62453110    -0.14550
C607        C  0.46851239  0.41061312  0.62846344    -0.12990
C608        C  0.44750178  0.41055099  0.62846045    -0.14550
C609        C  0.00943677  0.15688151  0.51439504    -0.12990
C610        C  0.49360645  0.14930300  0.99437215    -0.14550
C611        C  0.01554759  0.15909805  0.74456280    -0.12990
C612        C  0.50017657  0.15121857  0.76450870    -0.14550
C613        C  0.36173097  0.01562325  0.99171209    -0.12990
C614        C  0.35393405  0.49973938  0.51123247    -0.14550
C615        C  0.35821722  0.00807859  0.76088735    -0.12990
C616        C  0.35053049  0.49239266  0.74054730    -0.14550
C617        C  0.06031064  0.09409371  0.88726945    -0.12990
C618        C  0.03936885  0.09421808  0.88692947    -0.14610
C619        C  0.28175753  0.07916993  0.87360014    -0.12990
C620        C  0.30289938  0.07927183  0.87310325    -0.14550
C621        C  0.49595749  0.34347742  0.98777920    -0.12990
C622        C  0.01197740  0.35161802  0.50775705    -0.14550
C623        C  0.49588822  0.35521284  0.75799009    -0.12990
C624        C  0.01171136  0.36271210  0.73825752    -0.14550
C625        C  0.41138216  0.44635761  0.87813765    -0.12990
C626        C  0.41186492  0.46750355  0.87718808    -0.14550
C627        C  0.42836494  0.22603159  0.87009685    -0.12990
C628        C  0.42863517  0.20528513  0.87335271    -0.14550
C629        C  0.06024033  0.46780242  0.87908039    -0.12990
C630        C  0.03916339  0.44699678  0.87964544    -0.14550
C631        C  0.28217876  0.20417516  0.87489974    -0.12990
C632        C  0.30305840  0.22493075  0.87123572    -0.14550
C633        C  0.35171352  0.34224326  0.98751749    -0.12990
C634        C  0.34402287  0.35056473  0.50732081    -0.14550
C635        C  0.35471920  0.36215114  0.73796782    -0.12990
C636        C  0.36266545  0.35450801  0.75796911    -0.14550
N637        N  0.42063812  0.89245296  0.39332637    -0.05840
N638        N  0.42965161  0.91858463  0.39526770    -0.57960
N639        N  0.37496733  0.83444335  0.42074191    -0.05520
N640        N  0.35412393  0.82871821  0.43742040    -0.60090
N641        N  0.39763770  0.84677620  0.43601887    -0.05120
N642        N  0.39255342  0.84949769  0.46326429    -0.57930
N643        N  0.39801135  0.88016923  0.37809243    -0.04790
N644        N  0.39106287  0.89768431  0.36927749    -0.60440
C645        C  0.41112103  0.92143031  0.38003390     0.96340
C646        C  0.36537662  0.83769131  0.46394964     0.96120
N647        N  0.36473539  0.78004803  0.35156622    -0.06020
N648        N  0.34800945  0.75368876  0.35046148    -0.58540
N649        N  0.37696722  0.83896770  0.32597312    -0.04140
N650        N  0.36672097  0.85070110  0.31012163    -0.59790
N651        N  0.38736768  0.82755317  0.30952193    -0.06050
N652        N  0.38419228  0.83125546  0.28191675    -0.58800
N653        N  0.35470823  0.79198152  0.36780169    -0.03790
N654        N  0.33097876  0.77406926  0.37793754    -0.59880
Mn655      Mn  0.37552747  0.83612877  0.37316251     1.18440
C656        C  0.32720471  0.75037401  0.36706368     0.98420
C657        C  0.37142363  0.84585928  0.28281483     0.99080
N658        N  0.45382838  0.84733456  0.43607800    -0.06070
N659        N  0.46189936  0.85024085  0.46332800    -0.62380
N660        N  0.48608886  0.88092600  0.37813576    -0.04880
N661        N  0.01060417  0.89858722  0.36971595    -0.63060
N662        N  0.47564208  0.89297604  0.39337500    -0.05580
N663        N  0.49277290  0.91911148  0.39571743    -0.62650
N664        N  0.46433826  0.83528034  0.42082384    -0.04480
N665        N  0.47984803  0.82994170  0.43753601    -0.63340
Mn666      Mn  0.43697668  0.86998577  0.41507509     1.10660
C667        C  0.47763055  0.83884798  0.46405435     0.99640
C668        C  0.01424112  0.92218809  0.38068238     0.99720
N669        N  0.44426214  0.82811191  0.30941001    -0.05590
N670        N  0.45103839  0.83177003  0.28180683    -0.60960
N671        N  0.44231586  0.79271742  0.36770579    -0.04910
N672        N  0.44873081  0.77508021  0.37749706    -0.57690
N673        N  0.42026034  0.78052383  0.35142032    -0.06220
N674        N  0.41115658  0.75427453  0.34994581    -0.60530
N675        N  0.46616820  0.83984526  0.32593138    -0.05200
N676        N  0.48808385  0.85175953  0.31013744    -0.57710
Mn677      Mn  0.40388607  0.80354467  0.32946980     1.20190
Mn678      Mn  0.46506396  0.83693022  0.37317270     1.10090
Cl679      Cl  0.42023743  0.83639907  0.37276440    -0.85680
C680        C  0.47844896  0.84671878  0.28277374     0.96650
C681        C  0.42906233  0.75127171  0.36637166     0.96450
N682        N  0.45733922  0.60755207  0.31579462    -0.05840
N683        N  0.46612111  0.61148938  0.28904418    -0.57960
N684        N  0.48783768  0.60892190  0.37743177    -0.05520
N685        N  0.01134167  0.61546925  0.38955777    -0.60090
N686        N  0.47792061  0.58577219  0.36316656    -0.05120
N687        N  0.49443024  0.57602493  0.36518657    -0.57930
N688        N  0.46723114  0.63073396  0.33011820    -0.04790
N689        N  0.48311063  0.65083387  0.31328395    -0.60440
C690        C  0.48173423  0.63850076  0.28765684     0.96340
C691        C  0.01490354  0.59459846  0.38194097     0.96120
N692        N  0.44385881  0.62193277  0.43986788    -0.06020
N693        N  0.44973127  0.62639578  0.46783383    -0.58540
N694        N  0.44319234  0.65304883  0.37913733    -0.04140
N695        N  0.44965301  0.67685835  0.36875025    -0.59790
N696        N  0.42076333  0.64339955  0.39404299    -0.06050
N697        N  0.41143426  0.66036150  0.39392323    -0.58800
N698        N  0.46622338  0.63196363  0.42489009    -0.03790
N699        N  0.48765519  0.64321606  0.44211112    -0.59880
Mn700      Mn  0.46651889  0.63184343  0.37773881     1.18440
C701        C  0.47710954  0.63959929  0.46866966     0.98420
C702        C  0.42954403  0.68095892  0.37797651     0.99080
N703        N  0.42311717  0.53109067  0.36093512    -0.06070
N704        N  0.43179317  0.51366135  0.36055931    -0.62380
N705        N  0.37836122  0.54205576  0.32757116    -0.04880
N706        N  0.35832280  0.52577155  0.30983220    -0.63060
N707        N  0.40161272  0.55203558  0.31414507    -0.05580
N708        N  0.39773921  0.54290968  0.28717356    -0.62650
N709        N  0.39996628  0.52117766  0.37436865    -0.04480
N710        N  0.39233464  0.99673578  0.38350465    -0.63340
Mn711      Mn  0.44011737  0.56909615  0.33813525     1.10660
C712        C  0.41254069  0.99260201  0.37493274     0.99640
C713        C  0.37072207  0.52698651  0.28463764     0.99720
N714        N  0.36585281  0.58839277  0.39275375    -0.05590
N715        N  0.34874485  0.59753399  0.39286973    -0.60960
N716        N  0.37753548  0.54294630  0.42284791    -0.04910
N717        N  0.36695091  0.52161192  0.43936363    -0.57690
N718        N  0.38758616  0.56533245  0.43866032    -0.06220
N719        N  0.38380202  0.55951123  0.46645297    -0.60530
N720        N  0.35609283  0.56596337  0.37704663    -0.05200
N721        N  0.33200750  0.55929121  0.36634256    -0.57710
Mn722      Mn  0.40426984  0.60496800  0.41719982     1.20190
Mn723      Mn  0.37731422  0.54269313  0.37536542     1.10090
Cl724      Cl  0.42196067  0.58722612  0.37697729    -0.85680
C725        C  0.32795980  0.57936829  0.37612485     0.96650
C726        C  0.37098030  0.53214876  0.46640462     0.96450
N727        N  0.06330802  0.88608032  0.18672542    -0.05840
N728        N  0.05656862  0.88346288  0.21435606    -0.57960
N729        N  0.06606541  0.85366263  0.12615634    -0.05520
N730        N  0.05991290  0.82950591  0.11600751    -0.60090
N731        N  0.08811462  0.86391985  0.14241458    -0.05120
N732        N  0.09753992  0.84709367  0.14346819    -0.57930
N733        N  0.04136314  0.87543199  0.17028729    -0.04790
N734        N  0.01945571  0.86561627  0.18611814    -0.60440
C735        C  0.02912894  0.87075000  0.21345600     0.96340
C736        C  0.07993635  0.82595149  0.12671614     0.96120
N737        N  0.05282282  0.89738117  0.06142876    -0.06020
N738        N  0.04484630  0.89254009  0.03408048    -0.58540
N739        N  0.02064969  0.89660253  0.12115917    -0.04140
N740        N  0.49687551  0.88991103  0.13205846    -0.59790
N741        N  0.03054529  0.91949835  0.10754794    -0.06050
N742        N  0.01372384  0.92892972  0.10876183    -0.58800
N743        N  0.04311998  0.87454323  0.07532168    -0.03790
N744        N  0.02825432  0.85385584  0.05760366    -0.59880
Mn745      Mn  0.04246000  0.87436136  0.12301078     1.18440
C746        C  0.03001777  0.86537047  0.03187201     0.98420
C747        C  0.49309614  0.91040954  0.12433775     0.99080
N748        N  0.14282508  0.91917985  0.14359545    -0.06070
N749        N  0.16012984  0.91025467  0.14429316    -0.62380
N750        N  0.13016095  0.96457592  0.17300237    -0.04880
N751        N  0.14141756  0.98620160  0.19010909    -0.63060
N752        N  0.11991167  0.94247884  0.18820368    -0.05580
N753        N  0.12424310  0.94872145  0.21612777    -0.62650
N754        N  0.15253882  0.94122896  0.12826461    -0.04480
N755        N  0.17670992  0.94782209  0.11845215    -0.63340
Mn756      Mn  0.10371741  0.90268340  0.16615668     1.10660
C757        C  0.18096724  0.92816962  0.12837817     0.99640
C758        C  0.13753587  0.97604230  0.21679514     0.99720
N759        N  0.08482236  0.97470885  0.10938705    -0.05590
N760        N  0.07505852  0.99126575  0.11041446    -0.60960
N761        N  0.13102028  0.96456518  0.07780149    -0.04910
N762        N  0.15127925  0.98138360  0.06153417    -0.57690
N763        N  0.10806605  0.95416332  0.06301902    -0.06220
N764        N  0.11241103  0.96357114  0.03657339    -0.60530
N765        N  0.10769564  0.98495929  0.12412812    -0.05200
N766        N  0.11402411  0.50869473  0.13558561    -0.57710
Mn767      Mn  0.06894248  0.93646573  0.08488831     1.20190
Mn768      Mn  0.13100306  0.96414772  0.12564387     1.10090
Cl769      Cl  0.08674994  0.91927769  0.12469108    -0.85680
C770        C  0.09333830  0.51210006  0.12706244     0.96650
C771        C  0.13940170  0.98011329  0.03576725     0.96450
N772        N  0.22814840  0.64268253  0.39624396    -0.05840
N773        N  0.25448886  0.65951097  0.39595715    -0.57960
N774        N  0.17130155  0.63106844  0.42695253    -0.05520
N775        N  0.16087997  0.64190293  0.44422952    -0.60090
N776        N  0.18370130  0.62100224  0.44193022    -0.05120
N777        N  0.18208409  0.62501427  0.46993045    -0.57930
N778        N  0.21530986  0.65234804  0.38129559    -0.04790
N779        N  0.23266635  0.67603219  0.37070836    -0.60440
C780        C  0.25692423  0.68003666  0.37987129     0.96340
C781        C  0.16772295  0.63799566  0.47081120     0.96120
N782        N  0.11321755  0.58530713  0.36474924    -0.06020
N783        N  0.08694863  0.57566975  0.36632833    -0.58540
N784        N  0.16863461  0.63044915  0.33198187    -0.04140
N785        N  0.17217043  0.65049015  0.31533876    -0.59790
N786        N  0.15537272  0.60729011  0.31757050    -0.06050
N787        N  0.14989149  0.61120271  0.29097968    -0.58800
N788        N  0.12649438  0.60837251  0.37917063    -0.03790
N789        N  0.10956006  0.61498579  0.39095911    -0.59880
Mn790      Mn  0.17075692  0.63125809  0.37970912     1.18440
C791        C  0.08508328  0.59421904  0.38299544     0.98420
C792        C  0.16083814  0.63816926  0.28973285     0.99080
N793        N  0.18349198  0.56463532  0.44058878    -0.06070
N794        N  0.18182532  0.55882479  0.46835480    -0.62380
N795        N  0.21516777  0.56529838  0.37910543    -0.04880
N796        N  0.23245719  0.55879657  0.36796805    -0.63060
N797        N  0.22804505  0.58770684  0.39484008    -0.05580
N798        N  0.25434149  0.59699179  0.39457473    -0.62650
N799        N  0.17094683  0.54226589  0.42476257    -0.04480
N800        N  0.16042086  0.52092400  0.44125584    -0.63340
Mn801      Mn  0.20633201  0.60424293  0.41930884     1.10660
C802        C  0.16729940  0.53148137  0.46827476     0.99640
C803        C  0.25673072  0.57891763  0.37756373     0.99720
N804        N  0.15577346  0.55183259  0.31605754    -0.05590
N805        N  0.15076579  0.54300313  0.28897168    -0.60960
N806        N  0.12636160  0.52071060  0.37608773    -0.04910
N807        N  0.10929374  0.99638100  0.38535086    -0.57690
N808        N  0.11328801  0.53082734  0.36254943    -0.06220
N809        N  0.08708728  0.51371959  0.36224072    -0.60530
N810        N  0.16898267  0.54177529  0.32961806    -0.05200
N811        N  0.17298346  0.52577766  0.31188694    -0.57710
Mn812      Mn  0.13432913  0.56878951  0.33987589     1.20190
Mn813      Mn  0.17064825  0.54211615  0.37730477     1.10090
Cl814      Cl  0.17082917  0.58674894  0.37888610    -0.85680
C815        C  0.16198452  0.52721859  0.28655022     0.96650
C816        C  0.08500137  0.99259775  0.37674063     0.96450
N817        N  0.03077035  0.61194728  0.11200491    -0.05840
N818        N  0.01413527  0.58569986  0.11234851    -0.57960
N819        N  0.04224487  0.66820625  0.08081345    -0.05520
N820        N  0.02659252  0.67291786  0.06365399    -0.60090
N821        N  0.05228665  0.65521640  0.06646542    -0.05120
N822        N  0.04369696  0.65097074  0.03935077    -0.57930
N823        N  0.02072334  0.62484331  0.12638684    -0.04790
N824        N  0.49687298  0.60758122  0.13684710    -0.60440
C825        C  0.49335104  0.58335646  0.12812035     0.96340
C826        C  0.02814883  0.66251135  0.03781973     0.96120
N827        N  0.08829173  0.72628414  0.14617019    -0.06020
N828        N  0.09781067  0.75257444  0.14602628    -0.58540
N829        N  0.04249079  0.66923291  0.17563834    -0.04140
N830        N  0.02113441  0.65888236  0.19229682    -0.59790
N831        N  0.06490855  0.68173839  0.19127177    -0.06050
N832        N  0.05916813  0.68020005  0.21907727    -0.58800
N833        N  0.06576609  0.71352287  0.13071271    -0.03790
N834        N  0.05944412  0.73085964  0.11982515    -0.59880
Mn835      Mn  0.04233773  0.66915578  0.12835541     1.18440
C836        C  0.07975517  0.75504237  0.12933502     0.98420
C837        C  0.03181413  0.66583523  0.21918677     0.99080
N838        N  0.10786860  0.65453895  0.06726443    -0.06070
N839        N  0.11233525  0.64987531  0.04041942    -0.62380
N840        N  0.10772634  0.62410475  0.12777640    -0.04880
N841        N  0.11410727  0.60673211  0.13839618    -0.63060
N842        N  0.08493592  0.61139902  0.11286571    -0.05580
N843        N  0.07523117  0.58512519  0.11300705    -0.62650
N844        N  0.13078774  0.66718830  0.08209209    -0.04480
N845        N  0.15119814  0.67123348  0.06551425    -0.63340
Mn846      Mn  0.06890709  0.63319089  0.08914839     1.10660
C847        C  0.13939450  0.66078734  0.03953053     0.99640
C848        C  0.09345284  0.58260924  0.12924993     0.99720
N849        N  0.12073293  0.68125833  0.19221735    -0.05590
N850        N  0.12466730  0.67975317  0.22017502    -0.60960
N851        N  0.15263846  0.71267086  0.13188912    -0.04910
N852        N  0.17634183  0.72970398  0.12097323    -0.57690
N853        N  0.14310665  0.72577650  0.14688142    -0.06220
N854        N  0.16009548  0.75202438  0.14638226    -0.60530
N855        N  0.13044904  0.66843202  0.17705836    -0.05200
N856        N  0.14103344  0.65788258  0.19420285    -0.57710
Mn857      Mn  0.10453084  0.70429921  0.16999664     1.20190
Mn858      Mn  0.13104770  0.66831163  0.12970633     1.10090
Cl859      Cl  0.08677340  0.66887736  0.12920361    -0.85680
C860        C  0.13725952  0.66503187  0.22090150     0.96650
C861        C  0.18051572  0.75407474  0.12999840     0.96450
N862        N  0.39423523  0.91925914  0.10706179    -0.05840
N863        N  0.42051225  0.92872317  0.10844631    -0.57960
N864        N  0.33666201  0.87407492  0.07456625    -0.05520
N865        N  0.33050900  0.85324796  0.05702750    -0.60090
N866        N  0.34982436  0.89682384  0.06052855    -0.05120
N867        N  0.35267887  0.89177192  0.03323197    -0.57930
N868        N  0.38124940  0.89641888  0.12077525    -0.04790
N869        N  0.39838498  0.88980468  0.13190218    -0.60440
C870        C  0.42267111  0.91030132  0.12422634     0.96340
C871        C  0.34010872  0.86457586  0.03124333     0.96120
N872        N  0.28084049  0.86343283  0.14058590    -0.06020
N873        N  0.25461929  0.84641670  0.14176123    -0.58540
N874        N  0.33906496  0.87525981  0.16943017    -0.04140
N875        N  0.35084844  0.86533118  0.18571794    -0.59790
N876        N  0.32757911  0.88585635  0.18540701    -0.06050
N877        N  0.33124200  0.88311275  0.21316899    -0.58800
N878        N  0.29270752  0.85309394  0.12481439    -0.03790
N879        N  0.27476434  0.82866985  0.11512399    -0.59880
Mn880      Mn  0.33711728  0.87403098  0.12219010     1.18440
C881        C  0.25114610  0.82505866  0.12557859     0.98420
C882        C  0.34590748  0.87038450  0.21283325     0.99080
N883        N  0.35158284  0.95378142  0.06123478    -0.06070
N884        N  0.35723772  0.96353655  0.03494267    -0.62380
N885        N  0.38224613  0.98455739  0.12270202    -0.04880
N886        N  0.39944554  0.50835781  0.13424158    -0.63060
N887        N  0.39509876  0.97447879  0.10833107    -0.05580
N888        N  0.42141922  0.99128194  0.10970445    -0.62650
N889        N  0.33891172  0.96415134  0.07563449    -0.04480
N890        N  0.33601051  0.98129371  0.05922457    -0.63340
Mn891      Mn  0.37284195  0.93609012  0.08379267     1.10660
C892        C  0.34705832  0.98027586  0.03377908     0.99640
C893        C  0.42368219  0.51204295  0.12619144     0.99720
N894        N  0.32746632  0.94209607  0.18621791    -0.05590
N895        N  0.32957958  0.94834306  0.21414301    -0.60960
N896        N  0.29354293  0.94056772  0.12576687    -0.04910
N897        N  0.27587975  0.94732076  0.11638067    -0.57690
N898        N  0.28132222  0.91853855  0.14112776    -0.06220
N899        N  0.25514626  0.90977446  0.14224796    -0.60530
N900        N  0.33931823  0.96417894  0.17101139    -0.05200
N901        N  0.34989955  0.98581115  0.18812554    -0.57710
Mn902      Mn  0.30391658  0.90228328  0.16415161     1.20190
Mn903      Mn  0.33813277  0.96363736  0.12359488     1.10090
Cl904      Cl  0.33778320  0.91892758  0.12322360    -0.85680
C905        C  0.34373235  0.97566556  0.21482697     0.96650
C906        C  0.25205813  0.92772496  0.12654692     0.96450
C907        C  0.46895651  0.55827537  0.13142931    -0.12990
C908        C  0.44840952  0.53686120  0.13066657    -0.14550
C909        C  0.20505399  0.77898730  0.12542578    -0.12990
C910        C  0.22606626  0.79998515  0.12390711    -0.14550
C911        C  0.15448406  0.65073968  0.26671103    -0.12990
C912        C  0.14673053  0.65843944  0.24665308    -0.14550
C913        C  0.16074451  0.64730197  0.49657864    -0.12990
C914        C  0.15246130  0.65482334  0.01649970    -0.14550
C915        C  0.15222428  0.99930309  0.01315529    -0.12990
C916        C  0.16028659  0.51503731  0.49355478    -0.14550
C917        C  0.14765453  0.99276230  0.24247485    -0.12990
C918        C  0.15570056  0.50846253  0.26277190    -0.14550
C919        C  0.09300664  0.55763128  0.13228791    -0.12990
C920        C  0.09284756  0.53658105  0.13152058    -0.14550
C921        C  0.08028448  0.78009028  0.12534055    -0.12990
C922        C  0.08026663  0.80110120  0.12444534    -0.14550
C923        C  0.20591131  0.92796670  0.12519137    -0.12990
C924        C  0.22701116  0.92791220  0.12453110    -0.14550
C925        C  0.46851240  0.91061313  0.12846345    -0.12990
C926        C  0.44750178  0.91055100  0.12846046    -0.14550
C927        C  0.00943677  0.65688151  0.01439505    -0.12990
C928        C  0.49360645  0.64930300  0.49437215    -0.14550
C929        C  0.01554760  0.65909805  0.24456281    -0.12990
C930        C  0.50017656  0.65121858  0.26450869    -0.14550
C931        C  0.36173097  0.51562324  0.49171209    -0.12990
C932        C  0.35393405  0.99973938  0.01123247    -0.14550
C933        C  0.35821722  0.50807859  0.26088735    -0.12990
C934        C  0.35053049  0.99239266  0.24054730    -0.14550
C935        C  0.06031064  0.59409373  0.38726945    -0.12990
C936        C  0.03936886  0.59421809  0.38692946    -0.14610
C937        C  0.28175752  0.57916991  0.37360014    -0.12990
C938        C  0.30289937  0.57927182  0.37310325    -0.14550
C939        C  0.49595748  0.84347742  0.48777920    -0.12990
C940        C  0.01197742  0.85161804  0.00775705    -0.14550
C941        C  0.49588822  0.85521284  0.25799009    -0.12990
C942        C  0.01171136  0.86271210  0.23825752    -0.14550
C943        C  0.41138216  0.94635761  0.37813766    -0.12990
C944        C  0.41186492  0.96750355  0.37718809    -0.14550
C945        C  0.42836492  0.72603158  0.37009686    -0.12990
C946        C  0.42863515  0.70528512  0.37335272    -0.14550
C947        C  0.06024033  0.96780241  0.37908038    -0.12990
C948        C  0.03916339  0.94699677  0.37964544    -0.14550
C949        C  0.28217876  0.70417515  0.37489975    -0.12990
C950        C  0.30305840  0.72493075  0.37123572    -0.14550
C951        C  0.35171352  0.84224326  0.48751748    -0.12990
C952        C  0.34402287  0.85056473  0.00732080    -0.14550
C953        C  0.35471921  0.86215114  0.23796782    -0.12990
C954        C  0.36266545  0.85450801  0.25796911    -0.14550
N955        N  0.42063812  0.89245296  0.89332637    -0.05840
N956        N  0.42965162  0.91858464  0.89526770    -0.57960
N957        N  0.37496733  0.83444335  0.92074191    -0.05520
N958        N  0.35412393  0.82871821  0.93742040    -0.60090
N959        N  0.39763770  0.84677621  0.93601887    -0.05120
N960        N  0.39255343  0.84949769  0.96326429    -0.57930
N961        N  0.39801136  0.88016923  0.87809243    -0.04790
N962        N  0.39106288  0.89768431  0.86927749    -0.60440
C963        C  0.41112104  0.92143031  0.88003390     0.96340
C964        C  0.36537662  0.83769131  0.96394964     0.96120
N965        N  0.36473540  0.78004804  0.85156622    -0.06020
N966        N  0.34800945  0.75368877  0.85046148    -0.58540
N967        N  0.37696722  0.83896771  0.82597312    -0.04140
N968        N  0.36672097  0.85070110  0.81012163    -0.59790
N969        N  0.38736769  0.82755318  0.80952193    -0.06050
N970        N  0.38419229  0.83125547  0.78191675    -0.58800
N971        N  0.35470824  0.79198153  0.86780169    -0.03790
N972        N  0.33097876  0.77406927  0.87793754    -0.59880
Mn973      Mn  0.37552748  0.83612878  0.87316251     1.18440
C974        C  0.32720472  0.75037402  0.86706368     0.98420
C975        C  0.37142363  0.84585929  0.78281483     0.99080
N976        N  0.45382839  0.84733457  0.93607800    -0.06070
N977        N  0.46189937  0.85024086  0.96332800    -0.62380
N978        N  0.48608887  0.88092601  0.87813576    -0.04880
N979        N  0.01060417  0.89858723  0.86971596    -0.63060
N980        N  0.47564209  0.89297605  0.89337500    -0.05580
N981        N  0.49277290  0.91911149  0.89571743    -0.62650
N982        N  0.46433827  0.83528035  0.92082384    -0.04480
N983        N  0.47984804  0.82994171  0.93753600    -0.63340
Mn984      Mn  0.43697669  0.86998578  0.91507509     1.10660
C985        C  0.47763057  0.83884799  0.96405435     0.99640
C986        C  0.01424112  0.92218810  0.88068239     0.99720
N987        N  0.44426215  0.82811192  0.80941001    -0.05590
N988        N  0.45103840  0.83177005  0.78180683    -0.60960
N989        N  0.44231588  0.79271743  0.86770578    -0.04910
N990        N  0.44873083  0.77508022  0.87749706    -0.57690
N991        N  0.42026036  0.78052384  0.85142032    -0.06220
N992        N  0.41115660  0.75427454  0.84994580    -0.60530
N993        N  0.46616821  0.83984527  0.82593138    -0.05200
N994        N  0.48808385  0.85175954  0.81013744    -0.57710
Mn995      Mn  0.40388608  0.80354467  0.82946980     1.20190
Mn996      Mn  0.46506397  0.83693023  0.87317269     1.10090
Cl997      Cl  0.42023744  0.83639908  0.87276440    -0.85680
C998        C  0.47844896  0.84671879  0.78277374     0.96650
C999        C  0.42906234  0.75127172  0.86637166     0.96450
N1000       N  0.45733923  0.60755208  0.81579461    -0.05840
N1001       N  0.46612112  0.61148938  0.78904418    -0.57960
N1002       N  0.48783768  0.60892190  0.87743177    -0.05520
N1003       N  0.01134168  0.61546925  0.88955777    -0.60090
N1004       N  0.47792061  0.58577219  0.86316656    -0.05120
N1005       N  0.49443024  0.57602493  0.86518657    -0.57930
N1006       N  0.46723114  0.63073396  0.83011820    -0.04790
N1007       N  0.48311063  0.65083387  0.81328395    -0.60440
C1008       C  0.48173423  0.63850076  0.78765684     0.96340
C1009       C  0.01490354  0.59459846  0.88194097     0.96120
N1010       N  0.44385881  0.62193277  0.93986788    -0.06020
N1011       N  0.44973128  0.62639578  0.96783382    -0.58540
N1012       N  0.44319234  0.65304884  0.87913733    -0.04140
N1013       N  0.44965302  0.67685836  0.86875026    -0.59790
N1014       N  0.42076333  0.64339956  0.89404299    -0.06050
N1015       N  0.41143427  0.66036151  0.89392323    -0.58800
N1016       N  0.46622338  0.63196363  0.92489009    -0.03790
N1017       N  0.48765520  0.64321606  0.94211112    -0.59880
Mn1018     Mn  0.46651890  0.63184344  0.87773881     1.18440
C1019       C  0.47710954  0.63959929  0.96866965     0.98420
C1020       C  0.42954404  0.68095893  0.87797651     0.99080
N1021       N  0.42311717  0.53109067  0.86093512    -0.06070
N1022       N  0.43179316  0.51366135  0.86055930    -0.62380
N1023       N  0.37836122  0.54205577  0.82757116    -0.04880
N1024       N  0.35832280  0.52577156  0.80983220    -0.63060
N1025       N  0.40161272  0.55203559  0.81414507    -0.05580
N1026       N  0.39773921  0.54290968  0.78717356    -0.62650
N1027       N  0.39996627  0.52117766  0.87436865    -0.04480
N1028       N  0.39233464  0.99673578  0.88350465    -0.63340
Mn1029     Mn  0.44011737  0.56909615  0.83813525     1.10660
C1030       C  0.41254069  0.99260201  0.87493274     0.99640
C1031       C  0.37072206  0.52698652  0.78463764     0.99720
N1032       N  0.36585282  0.58839277  0.89275375    -0.05590
N1033       N  0.34874486  0.59753400  0.89286973    -0.60960
N1034       N  0.37753548  0.54294630  0.92284790    -0.04910
N1035       N  0.36695091  0.52161192  0.93936363    -0.57690
N1036       N  0.38758616  0.56533245  0.93866032    -0.06220
N1037       N  0.38380202  0.55951124  0.96645297    -0.60530
N1038       N  0.35609283  0.56596338  0.87704663    -0.05200
N1039       N  0.33200751  0.55929122  0.86634256    -0.57710
Mn1040     Mn  0.40426985  0.60496801  0.91719982     1.20190
Mn1041     Mn  0.37731422  0.54269314  0.87536542     1.10090
Cl1042     Cl  0.42196067  0.58722612  0.87697729    -0.85680
C1043       C  0.32795981  0.57936830  0.87612485     0.96650
C1044       C  0.37098030  0.53214877  0.96640462     0.96450
N1045       N  0.06330801  0.88608031  0.68672542    -0.05840
N1046       N  0.05656862  0.88346288  0.71435606    -0.57960
N1047       N  0.06606540  0.85366263  0.62615634    -0.05520
N1048       N  0.05991290  0.82950590  0.61600750    -0.60090
N1049       N  0.08811462  0.86391985  0.64241458    -0.05120
N1050       N  0.09753992  0.84709366  0.64346818    -0.57930
N1051       N  0.04136314  0.87543199  0.67028729    -0.04790
N1052       N  0.01945571  0.86561627  0.68611814    -0.60440
C1053       C  0.02912894  0.87075000  0.71345600     0.96340
C1054       C  0.07993635  0.82595149  0.62671614     0.96120
N1055       N  0.05282282  0.89738116  0.56142876    -0.06020
N1056       N  0.04484630  0.89254008  0.53408048    -0.58540
N1057       N  0.02064969  0.89660252  0.62115917    -0.04140
N1058       N  0.49687551  0.88991103  0.63205845    -0.59790
N1059       N  0.03054528  0.91949834  0.60754794    -0.06050
N1060       N  0.01372383  0.92892971  0.60876183    -0.58800
N1061       N  0.04311998  0.87454322  0.57532168    -0.03790
N1062       N  0.02825432  0.85385583  0.55760366    -0.59880
Mn1063     Mn  0.04245999  0.87436136  0.62301078     1.18440
C1064       C  0.03001776  0.86537046  0.53187201     0.98420
C1065       C  0.49309614  0.91040953  0.62433774     0.99080
N1066       N  0.14282507  0.91917985  0.64359545    -0.06070
N1067       N  0.16012983  0.91025467  0.64429316    -0.62380
N1068       N  0.13016094  0.96457592  0.67300236    -0.04880
N1069       N  0.14141755  0.98620160  0.69010909    -0.63060
N1070       N  0.11991166  0.94247883  0.68820368    -0.05580
N1071       N  0.12424310  0.94872145  0.71612777    -0.62650
N1072       N  0.15253881  0.94122896  0.62826460    -0.04480
N1073       N  0.17670991  0.94782209  0.61845215    -0.63340
Mn1074     Mn  0.10371740  0.90268340  0.66615668     1.10660
C1075       C  0.18096724  0.92816962  0.62837816     0.99640
C1076       C  0.13753587  0.97604230  0.71679514     0.99720
N1077       N  0.08482235  0.97470884  0.60938704    -0.05590
N1078       N  0.07505850  0.99126574  0.61041446    -0.60960
N1079       N  0.13102027  0.96456517  0.57780149    -0.04910
N1080       N  0.15127924  0.98138360  0.56153417    -0.57690
N1081       N  0.10806604  0.95416332  0.56301902    -0.06220
N1082       N  0.11241102  0.96357113  0.53657339    -0.60530
N1083       N  0.10769563  0.98495928  0.62412812    -0.05200
N1084       N  0.11402410  0.50869473  0.63558560    -0.57710
Mn1085     Mn  0.06894247  0.93646572  0.58488831     1.20190
Mn1086     Mn  0.13100305  0.96414771  0.62564387     1.10090
Cl1087     Cl  0.08674994  0.91927768  0.62469108    -0.85680
C1088       C  0.09333829  0.51210005  0.62706243     0.96650
C1089       C  0.13940169  0.98011328  0.53576725     0.96450
N1090       N  0.22814840  0.64268254  0.89624396    -0.05840
N1091       N  0.25448886  0.65951097  0.89595715    -0.57960
N1092       N  0.17130155  0.63106844  0.92695253    -0.05520
N1093       N  0.16087997  0.64190293  0.94422951    -0.60090
N1094       N  0.18370130  0.62100225  0.94193021    -0.05120
N1095       N  0.18208409  0.62501427  0.96993045    -0.57930
N1096       N  0.21530987  0.65234805  0.88129558    -0.04790
N1097       N  0.23266636  0.67603219  0.87070835    -0.60440
C1098       C  0.25692424  0.68003666  0.87987128     0.96340
C1099       C  0.16772295  0.63799567  0.97081120     0.96120
N1100       N  0.11321756  0.58530714  0.86474923    -0.06020
N1101       N  0.08694864  0.57566975  0.86632832    -0.58540
N1102       N  0.16863461  0.63044916  0.83198186    -0.04140
N1103       N  0.17217044  0.65049016  0.81533875    -0.59790
N1104       N  0.15537272  0.60729011  0.81757050    -0.06050
N1105       N  0.14989150  0.61120272  0.79097968    -0.58800
N1106       N  0.12649438  0.60837252  0.87917063    -0.03790
N1107       N  0.10956007  0.61498579  0.89095911    -0.59880
Mn1108     Mn  0.17075693  0.63125810  0.87970912     1.18440
C1109       C  0.08508328  0.59421904  0.88299544     0.98420
C1110       C  0.16083815  0.63816927  0.78973284     0.99080
N1111       N  0.18349198  0.56463533  0.94058877    -0.06070
N1112       N  0.18182533  0.55882479  0.96835480    -0.62380
N1113       N  0.21516777  0.56529838  0.87910543    -0.04880
N1114       N  0.23245720  0.55879658  0.86796804    -0.63060
N1115       N  0.22804505  0.58770684  0.89484008    -0.05580
N1116       N  0.25434149  0.59699180  0.89457473    -0.62650
N1117       N  0.17094684  0.54226589  0.92476257    -0.04480
N1118       N  0.16042087  0.52092401  0.94125584    -0.63340
Mn1119     Mn  0.20633201  0.60424294  0.91930883     1.10660
C1120       C  0.16729941  0.53148137  0.96827476     0.99640
C1121       C  0.25673072  0.57891764  0.87756373     0.99720
N1122       N  0.15577346  0.55183260  0.81605754    -0.05590
N1123       N  0.15076580  0.54300314  0.78897168    -0.60960
N1124       N  0.12636160  0.52071060  0.87608773    -0.04910
N1125       N  0.10929374  0.99638100  0.88535087    -0.57690
N1126       N  0.11328802  0.53082735  0.86254942    -0.06220
N1127       N  0.08708729  0.51371959  0.86224071    -0.60530
N1128       N  0.16898268  0.54177530  0.82961806    -0.05200
N1129       N  0.17298347  0.52577766  0.81188694    -0.57710
Mn1130     Mn  0.13432914  0.56878951  0.83987589     1.20190
Mn1131     Mn  0.17064825  0.54211615  0.87730476     1.10090
Cl1132     Cl  0.17082918  0.58674895  0.87888609    -0.85680
C1133       C  0.16198452  0.52721859  0.78655021     0.96650
C1134       C  0.08500137  0.99259775  0.87674063     0.96450
N1135       N  0.03077035  0.61194728  0.61200490    -0.05840
N1136       N  0.01413528  0.58569986  0.61234850    -0.57960
N1137       N  0.04224487  0.66820625  0.58081344    -0.05520
N1138       N  0.02659252  0.67291785  0.56365399    -0.60090
N1139       N  0.05228665  0.65521640  0.56646541    -0.05120
N1140       N  0.04369696  0.65097074  0.53935076    -0.57930
N1141       N  0.02072334  0.62484331  0.62638683    -0.04790
N1142       N  0.49687298  0.60758122  0.63684710    -0.60440
C1143       C  0.49335104  0.58335646  0.62812035     0.96340
C1144       C  0.02814883  0.66251135  0.53781972     0.96120
N1145       N  0.08829173  0.72628413  0.64617019    -0.06020
N1146       N  0.09781067  0.75257444  0.64602628    -0.58540
N1147       N  0.04249079  0.66923291  0.67563834    -0.04140
N1148       N  0.02113441  0.65888236  0.69229682    -0.59790
N1149       N  0.06490855  0.68173839  0.69127177    -0.06050
N1150       N  0.05916813  0.68020005  0.71907726    -0.58800
N1151       N  0.06576608  0.71352287  0.63071271    -0.03790
N1152       N  0.05944412  0.73085964  0.61982515    -0.59880
Mn1153     Mn  0.04233773  0.66915578  0.62835540     1.18440
C1154       C  0.07975517  0.75504236  0.62933502     0.98420
C1155       C  0.03181413  0.66583523  0.71918677     0.99080
N1156       N  0.10786860  0.65453895  0.56726443    -0.06070
N1157       N  0.11233525  0.64987531  0.54041942    -0.62380
N1158       N  0.10772634  0.62410475  0.62777640    -0.04880
N1159       N  0.11410726  0.60673210  0.63839617    -0.63060
N1160       N  0.08493592  0.61139901  0.61286570    -0.05580
N1161       N  0.07523117  0.58512519  0.61300704    -0.62650
N1162       N  0.13078774  0.66718830  0.58209209    -0.04480
N1163       N  0.15119814  0.67123348  0.56551424    -0.63340
Mn1164     Mn  0.06890709  0.63319089  0.58914838     1.10660
C1165       C  0.13939451  0.66078735  0.53953053     0.99640
C1166       C  0.09345284  0.58260923  0.62924992     0.99720
N1167       N  0.12073293  0.68125832  0.69221735    -0.05590
N1168       N  0.12466730  0.67975317  0.72017502    -0.60960
N1169       N  0.15263846  0.71267086  0.63188912    -0.04910
N1170       N  0.17634183  0.72970398  0.62097323    -0.57690
N1171       N  0.14310665  0.72577650  0.64688141    -0.06220
N1172       N  0.16009548  0.75202437  0.64638226    -0.60530
N1173       N  0.13044904  0.66843202  0.67705835    -0.05200
N1174       N  0.14103344  0.65788258  0.69420284    -0.57710
Mn1175     Mn  0.10453084  0.70429921  0.66999664     1.20190
Mn1176     Mn  0.13104770  0.66831163  0.62970633     1.10090
Cl1177     Cl  0.08677340  0.66887736  0.62920360    -0.85680
C1178       C  0.13725953  0.66503187  0.72090150     0.96650
C1179       C  0.18051571  0.75407474  0.62999840     0.96450
N1180       N  0.39423523  0.91925914  0.60706179    -0.05840
N1181       N  0.42051225  0.92872317  0.60844631    -0.57960
N1182       N  0.33666200  0.87407492  0.57456625    -0.05520
N1183       N  0.33050900  0.85324797  0.55702749    -0.60090
N1184       N  0.34982436  0.89682384  0.56052855    -0.05120
N1185       N  0.35267886  0.89177193  0.53323197    -0.57930
N1186       N  0.38124940  0.89641888  0.62077525    -0.04790
N1187       N  0.39838498  0.88980468  0.63190217    -0.60440
C1188       C  0.42267111  0.91030132  0.62422633     0.96340
C1189       C  0.34010872  0.86457586  0.53124333     0.96120
N1190       N  0.28084048  0.86343283  0.64058590    -0.06020
N1191       N  0.25461929  0.84641670  0.64176123    -0.58540
N1192       N  0.33906495  0.87525981  0.66943017    -0.04140
N1193       N  0.35084844  0.86533118  0.68571794    -0.59790
N1194       N  0.32757910  0.88585635  0.68540700    -0.06050
N1195       N  0.33124200  0.88311275  0.71316899    -0.58800
N1196       N  0.29270751  0.85309394  0.62481439    -0.03790
N1197       N  0.27476433  0.82866986  0.61512399    -0.59880
Mn1198     Mn  0.33711727  0.87403098  0.62219010     1.18440
C1199       C  0.25114610  0.82505866  0.62557859     0.98420
C1200       C  0.34590748  0.87038450  0.71283325     0.99080
N1201       N  0.35158284  0.95378143  0.56123478    -0.06070
N1202       N  0.35723772  0.96353656  0.53494267    -0.62380
N1203       N  0.38224613  0.98455739  0.62270203    -0.04880
N1204       N  0.39944553  0.50835781  0.63424158    -0.63060
N1205       N  0.39509876  0.97447879  0.60833107    -0.05580
N1206       N  0.42141922  0.99128194  0.60970445    -0.62650
N1207       N  0.33891172  0.96415135  0.57563449    -0.04480
N1208       N  0.33601051  0.98129372  0.55922457    -0.63340
Mn1209     Mn  0.37284195  0.93609013  0.58379267     1.10660
C1210       C  0.34705832  0.98027587  0.53377909     0.99640
C1211       C  0.42368219  0.51204296  0.62619144     0.99720
N1212       N  0.32746631  0.94209607  0.68621791    -0.05590
N1213       N  0.32957958  0.94834306  0.71414301    -0.60960
N1214       N  0.29354293  0.94056772  0.62576687    -0.04910
N1215       N  0.27587975  0.94732076  0.61638067    -0.57690
N1216       N  0.28132222  0.91853855  0.64112776    -0.06220
N1217       N  0.25514625  0.90977446  0.64224796    -0.60530
N1218       N  0.33931822  0.96417894  0.67101139    -0.05200
N1219       N  0.34989954  0.98581115  0.68812554    -0.57710
Mn1220     Mn  0.30391658  0.90228328  0.66415161     1.20190
Mn1221     Mn  0.33813277  0.96363737  0.62359488     1.10090
Cl1222     Cl  0.33778320  0.91892758  0.62322360    -0.85680
C1223       C  0.34373235  0.97566556  0.71482698     0.96650
C1224       C  0.25205812  0.92772496  0.62654692     0.96450
C1225       C  0.46895651  0.55827537  0.63142931    -0.12990
C1226       C  0.44840952  0.53686120  0.63066657    -0.14550
C1227       C  0.20505398  0.77898730  0.62542578    -0.12990
C1228       C  0.22606625  0.79998515  0.62390711    -0.14550
C1229       C  0.15448407  0.65073968  0.76671103    -0.12990
C1230       C  0.14673054  0.65843944  0.74665307    -0.14550
C1231       C  0.16074450  0.64730197  0.99657864    -0.12990
C1232       C  0.15246130  0.65482335  0.51649970    -0.14550
C1233       C  0.15222427  0.99930309  0.51315529    -0.12990
C1234       C  0.16028659  0.51503732  0.99355478    -0.14550
C1235       C  0.14765453  0.99276230  0.74247485    -0.12990
C1236       C  0.15570056  0.50846253  0.76277190    -0.14550
C1237       C  0.09300664  0.55763128  0.63228790    -0.12990
C1238       C  0.09284755  0.53658105  0.63152057    -0.14550
C1239       C  0.08028448  0.78009028  0.62534054    -0.12990
C1240       C  0.08026663  0.80110120  0.62444534    -0.14550
C1241       C  0.20591131  0.92796670  0.62519136    -0.12990
C1242       C  0.22701116  0.92791221  0.62453110    -0.14550
C1243       C  0.46851239  0.91061312  0.62846344    -0.12990
C1244       C  0.44750178  0.91055099  0.62846045    -0.14550
C1245       C  0.00943676  0.65688151  0.51439505    -0.12990
C1246       C  0.49360645  0.64930300  0.99437215    -0.14550
C1247       C  0.01554760  0.65909805  0.74456280    -0.12990
C1248       C  0.50017657  0.65121858  0.76450870    -0.14550
C1249       C  0.36173097  0.51562325  0.99171209    -0.12990
C1250       C  0.35393405  0.99973939  0.51123247    -0.14550
C1251       C  0.35821722  0.50807860  0.76088735    -0.12990
C1252       C  0.35053049  0.99239265  0.74054730    -0.14550
C1253       C  0.06031065  0.59409372  0.88726945    -0.12990
C1254       C  0.03936886  0.59421809  0.88692947    -0.14610
C1255       C  0.28175753  0.57916992  0.87360014    -0.12990
C1256       C  0.30289937  0.57927183  0.87310325    -0.14550
C1257       C  0.49595750  0.84347743  0.98777920    -0.12990
C1258       C  0.01197741  0.85161803  0.50775705    -0.14550
C1259       C  0.49588823  0.85521285  0.75799009    -0.12990
C1260       C  0.01171137  0.86271210  0.73825752    -0.14550
C1261       C  0.41138217  0.94635761  0.87813766    -0.12990
C1262       C  0.41186493  0.96750355  0.87718809    -0.14550
C1263       C  0.42836494  0.72603159  0.87009686    -0.12990
C1264       C  0.42863517  0.70528514  0.87335272    -0.14550
C1265       C  0.06024033  0.96780241  0.87908039    -0.12990
C1266       C  0.03916339  0.94699678  0.87964545    -0.14550
C1267       C  0.28217877  0.70417516  0.87489975    -0.12990
C1268       C  0.30305840  0.72493075  0.87123572    -0.14550
C1269       C  0.35171352  0.84224326  0.98751748    -0.12990
C1270       C  0.34402286  0.85056474  0.50732080    -0.14550
C1271       C  0.35471921  0.86215114  0.73796782    -0.12990
C1272       C  0.36266546  0.85450802  0.75796911    -0.14550
N1273       N  0.92063811  0.39245296  0.39332637    -0.05840
N1274       N  0.92965160  0.41858463  0.39526770    -0.57960
N1275       N  0.87496732  0.33444335  0.42074191    -0.05520
N1276       N  0.85412392  0.32871821  0.43742040    -0.60090
N1277       N  0.89763769  0.34677620  0.43601887    -0.05120
N1278       N  0.89255341  0.34949768  0.46326429    -0.57930
N1279       N  0.89801135  0.38016923  0.37809243    -0.04790
N1280       N  0.89106286  0.39768431  0.36927749    -0.60440
C1281       C  0.91112103  0.42143031  0.38003390     0.96340
C1282       C  0.86537661  0.33769131  0.46394964     0.96120
N1283       N  0.86473539  0.28004804  0.35156622    -0.06020
N1284       N  0.84800944  0.25368876  0.35046147    -0.58540
N1285       N  0.87696721  0.33896771  0.32597312    -0.04140
N1286       N  0.86672096  0.35070110  0.31012163    -0.59790
N1287       N  0.88736767  0.32755317  0.30952193    -0.06050
N1288       N  0.88419228  0.33125546  0.28191675    -0.58800
N1289       N  0.85470822  0.29198153  0.36780168    -0.03790
N1290       N  0.83097875  0.27406926  0.37793754    -0.59880
Mn1291     Mn  0.87552746  0.33612877  0.37316251     1.18440
C1292       C  0.82720471  0.25037401  0.36706368     0.98420
C1293       C  0.87142362  0.34585928  0.28281483     0.99080
N1294       N  0.95382837  0.34733456  0.43607800    -0.06070
N1295       N  0.96189934  0.35024085  0.46332800    -0.62380
N1296       N  0.98608885  0.38092600  0.37813576    -0.04880
N1297       N  0.51060417  0.39858723  0.36971596    -0.63060
N1298       N  0.97564208  0.39297604  0.39337501    -0.05580
N1299       N  0.99277289  0.41911148  0.39571744    -0.62650
N1300       N  0.96433825  0.33528034  0.42082384    -0.04480
N1301       N  0.97984802  0.32994170  0.43753601    -0.63340
Mn1302     Mn  0.93697667  0.36998577  0.41507509     1.10660
C1303       C  0.97763054  0.33884797  0.46405435     0.99640
C1304       C  0.51424112  0.42218809  0.38068239     0.99720
N1305       N  0.94426213  0.32811192  0.30941001    -0.05590
N1306       N  0.95103839  0.33177004  0.28180683    -0.60960
N1307       N  0.94231586  0.29271743  0.36770578    -0.04910
N1308       N  0.94873081  0.27508022  0.37749706    -0.57690
N1309       N  0.92026034  0.28052384  0.35142032    -0.06220
N1310       N  0.91115658  0.25427454  0.34994580    -0.60530
N1311       N  0.96616820  0.33984527  0.32593138    -0.05200
N1312       N  0.98808384  0.35175954  0.31013744    -0.57710
Mn1313     Mn  0.90388607  0.30354467  0.32946980     1.20190
Mn1314     Mn  0.96506395  0.33693023  0.37317269     1.10090
Cl1315     Cl  0.92023742  0.33639907  0.37276440    -0.85680
C1316       C  0.97844895  0.34671879  0.28277374     0.96650
C1317       C  0.92906233  0.25127172  0.36637165     0.96450
N1318       N  0.95733922  0.10755207  0.31579461    -0.05840
N1319       N  0.96612111  0.11148937  0.28904418    -0.57960
N1320       N  0.98783768  0.10892190  0.37743176    -0.05520
N1321       N  0.51134167  0.11546924  0.38955778    -0.60090
N1322       N  0.97792061  0.08577219  0.36316656    -0.05120
N1323       N  0.99443024  0.07602493  0.36518657    -0.57930
N1324       N  0.96723114  0.13073396  0.33011820    -0.04790
N1325       N  0.98311063  0.15083386  0.31328394    -0.60440
C1326       C  0.98173423  0.13850076  0.28765684     0.96340
C1327       C  0.51490354  0.09459845  0.38194098     0.96120
N1328       N  0.94385881  0.12193277  0.43986788    -0.06020
N1329       N  0.94973128  0.12639578  0.46783382    -0.58540
N1330       N  0.94319234  0.15304883  0.37913733    -0.04140
N1331       N  0.94965301  0.17685835  0.36875025    -0.59790
N1332       N  0.92076333  0.14339956  0.39404298    -0.06050
N1333       N  0.91143426  0.16036150  0.39392322    -0.58800
N1334       N  0.96622338  0.13196364  0.42489008    -0.03790
N1335       N  0.98765520  0.14321606  0.44211112    -0.59880
Mn1336     Mn  0.96651889  0.13184344  0.37773881     1.18440
C1337       C  0.97710954  0.13959929  0.46866965     0.98420
C1338       C  0.92954403  0.18095893  0.37797650     0.99080
N1339       N  0.92311717  0.03109067  0.36093513    -0.06070
N1340       N  0.93179316  0.01366135  0.36055931    -0.62380
N1341       N  0.87836122  0.04205576  0.32757116    -0.04880
N1342       N  0.85832280  0.02577155  0.30983220    -0.63060
N1343       N  0.90161272  0.05203558  0.31414507    -0.05580
N1344       N  0.89773921  0.04290968  0.28717357    -0.62650
N1345       N  0.89996627  0.02117766  0.37436865    -0.04480
N1346       N  0.89233463  0.49673578  0.38350465    -0.63340
Mn1347     Mn  0.94011737  0.06909615  0.33813526     1.10660
C1348       C  0.91254069  0.49260201  0.37493274     0.99640
C1349       C  0.87072206  0.02698652  0.28463764     0.99720
N1350       N  0.86585282  0.08839277  0.39275375    -0.05590
N1351       N  0.84874486  0.09753400  0.39286973    -0.60960
N1352       N  0.87753548  0.04294630  0.42284791    -0.04910
N1353       N  0.86695091  0.02161192  0.43936364    -0.57690
N1354       N  0.88758616  0.06533246  0.43866032    -0.06220
N1355       N  0.88380202  0.05951124  0.46645297    -0.60530
N1356       N  0.85609283  0.06596338  0.37704663    -0.05200
N1357       N  0.83200750  0.05929121  0.36634256    -0.57710
Mn1358     Mn  0.90426984  0.10496801  0.41719982     1.20190
Mn1359     Mn  0.87731422  0.04269314  0.37536542     1.10090
Cl1360     Cl  0.92196067  0.08722612  0.37697729    -0.85680
C1361       C  0.82795980  0.07936830  0.37612485     0.96650
C1362       C  0.87098030  0.03214877  0.46640463     0.96450
N1363       N  0.56330801  0.38608032  0.18672542    -0.05840
N1364       N  0.55656862  0.38346288  0.21435606    -0.57960
N1365       N  0.56606540  0.35366263  0.12615634    -0.05520
N1366       N  0.55991290  0.32950591  0.11600751    -0.60090
N1367       N  0.58811462  0.36391985  0.14241458    -0.05120
N1368       N  0.59753992  0.34709366  0.14346819    -0.57930
N1369       N  0.54136314  0.37543199  0.17028729    -0.04790
N1370       N  0.51945571  0.36561627  0.18611813    -0.60440
C1371       C  0.52912894  0.37075001  0.21345600     0.96340
C1372       C  0.57993635  0.32595149  0.12671614     0.96120
N1373       N  0.55282282  0.39738116  0.06142876    -0.06020
N1374       N  0.54484630  0.39254009  0.03408048    -0.58540
N1375       N  0.52064969  0.39660252  0.12115917    -0.04140
N1376       N  0.99687551  0.38991103  0.13205845    -0.59790
N1377       N  0.53054528  0.41949834  0.10754794    -0.06050
N1378       N  0.51372383  0.42892971  0.10876183    -0.58800
N1379       N  0.54311998  0.37454323  0.07532168    -0.03790
N1380       N  0.52825432  0.35385583  0.05760365    -0.59880
Mn1381     Mn  0.54246000  0.37436136  0.12301078     1.18440
C1382       C  0.53001777  0.36537047  0.03187201     0.98420
C1383       C  0.99309614  0.41040954  0.12433775     0.99080
N1384       N  0.64282507  0.41917985  0.14359545    -0.06070
N1385       N  0.66012983  0.41025466  0.14429316    -0.62380
N1386       N  0.63016094  0.46457592  0.17300237    -0.04880
N1387       N  0.64141756  0.48620160  0.19010909    -0.63060
N1388       N  0.61991166  0.44247884  0.18820368    -0.05580
N1389       N  0.62424310  0.44872145  0.21612777    -0.62650
N1390       N  0.65253881  0.44122896  0.12826460    -0.04480
N1391       N  0.67670991  0.44782209  0.11845215    -0.63340
Mn1392     Mn  0.60371740  0.40268340  0.16615668     1.10660
C1393       C  0.68096724  0.42816962  0.12837816     0.99640
C1394       C  0.63753587  0.47604230  0.21679514     0.99720
N1395       N  0.58482235  0.47470885  0.10938704    -0.05590
N1396       N  0.57505851  0.49126575  0.11041446    -0.60960
N1397       N  0.63102028  0.46456518  0.07780149    -0.04910
N1398       N  0.65127924  0.48138360  0.06153417    -0.57690
N1399       N  0.60806605  0.45416332  0.06301902    -0.06220
N1400       N  0.61241102  0.46357114  0.03657339    -0.60530
N1401       N  0.60769564  0.48495929  0.12412812    -0.05200
N1402       N  0.61402410  0.00869473  0.13558561    -0.57710
Mn1403     Mn  0.56894247  0.43646572  0.08488831     1.20190
Mn1404     Mn  0.63100306  0.46414772  0.12564387     1.10090
Cl1405     Cl  0.58674994  0.41927768  0.12469108    -0.85680
C1406       C  0.59333829  0.01210006  0.12706245     0.96650
C1407       C  0.63940170  0.48011329  0.03576725     0.96450
N1408       N  0.72814840  0.14268253  0.39624396    -0.05840
N1409       N  0.75448886  0.15951097  0.39595715    -0.57960
N1410       N  0.67130154  0.13106844  0.42695253    -0.05520
N1411       N  0.66087996  0.14190293  0.44422952    -0.60090
N1412       N  0.68370130  0.12100225  0.44193022    -0.05120
N1413       N  0.68208409  0.12501427  0.46993046    -0.57930
N1414       N  0.71530986  0.15234804  0.38129559    -0.04790
N1415       N  0.73266635  0.17603219  0.37070836    -0.60440
C1416       C  0.75692423  0.18003666  0.37987128     0.96340
C1417       C  0.66772294  0.13799566  0.47081120     0.96120
N1418       N  0.61321755  0.08530713  0.36474924    -0.06020
N1419       N  0.58694863  0.07566974  0.36632833    -0.58540
N1420       N  0.66863460  0.13044915  0.33198187    -0.04140
N1421       N  0.67217043  0.15049015  0.31533876    -0.59790
N1422       N  0.65537271  0.10729011  0.31757050    -0.06050
N1423       N  0.64989149  0.11120271  0.29097968    -0.58800
N1424       N  0.62649438  0.10837251  0.37917063    -0.03790
N1425       N  0.60956006  0.11498578  0.39095912    -0.59880
Mn1426     Mn  0.67075692  0.13125809  0.37970912     1.18440
C1427       C  0.58508327  0.09421903  0.38299545     0.98420
C1428       C  0.66083814  0.13816926  0.28973285     0.99080
N1429       N  0.68349198  0.06463532  0.44058878    -0.06070
N1430       N  0.68182533  0.05882479  0.46835480    -0.62380
N1431       N  0.71516777  0.06529838  0.37910543    -0.04880
N1432       N  0.73245719  0.05879658  0.36796804    -0.63060
N1433       N  0.72804505  0.08770684  0.39484008    -0.05580
N1434       N  0.75434149  0.09699180  0.39457473    -0.62650
N1435       N  0.67094684  0.04226589  0.42476257    -0.04480
N1436       N  0.66042087  0.02092401  0.44125584    -0.63340
Mn1437     Mn  0.70633201  0.10424294  0.41930884     1.10660
C1438       C  0.66729941  0.03148137  0.46827476     0.99640
C1439       C  0.75673072  0.07891764  0.37756373     0.99720
N1440       N  0.65577346  0.05183260  0.31605754    -0.05590
N1441       N  0.65076579  0.04300314  0.28897168    -0.60960
N1442       N  0.62636160  0.02071060  0.37608773    -0.04910
N1443       N  0.60929374  0.49638100  0.38535087    -0.57690
N1444       N  0.61328802  0.03082734  0.36254942    -0.06220
N1445       N  0.58708729  0.01371959  0.36224072    -0.60530
N1446       N  0.66898268  0.04177530  0.32961806    -0.05200
N1447       N  0.67298347  0.02577767  0.31188694    -0.57710
Mn1448     Mn  0.63432913  0.06878951  0.33987589     1.20190
Mn1449     Mn  0.67064825  0.04211615  0.37730476     1.10090
Cl1450     Cl  0.67082917  0.08674894  0.37888610    -0.85680
C1451       C  0.66198452  0.02721860  0.28655022     0.96650
C1452       C  0.58500136  0.49259775  0.37674064     0.96450
N1453       N  0.53077036  0.11194728  0.11200490    -0.05840
N1454       N  0.51413528  0.08569986  0.11234850    -0.57960
N1455       N  0.54224487  0.16820626  0.08081344    -0.05520
N1456       N  0.52659253  0.17291786  0.06365399    -0.60090
N1457       N  0.55228665  0.15521640  0.06646541    -0.05120
N1458       N  0.54369697  0.15097074  0.03935077    -0.57930
N1459       N  0.52072334  0.12484332  0.12638683    -0.04790
N1460       N  0.99687298  0.10758122  0.13684709    -0.60440
C1461       C  0.99335104  0.08335646  0.12812034     0.96340
C1462       C  0.52814884  0.16251136  0.03781972     0.96120
N1463       N  0.58829173  0.22628414  0.14617019    -0.06020
N1464       N  0.59781067  0.25257444  0.14602628    -0.58540
N1465       N  0.54249079  0.16923291  0.17563834    -0.04140
N1466       N  0.52113441  0.15888236  0.19229682    -0.59790
N1467       N  0.56490855  0.18173839  0.19127177    -0.06050
N1468       N  0.55916813  0.18020005  0.21907726    -0.58800
N1469       N  0.56576609  0.21352287  0.13071271    -0.03790
N1470       N  0.55944412  0.23085964  0.11982515    -0.59880
Mn1471     Mn  0.54233773  0.16915579  0.12835541     1.18440
C1472       C  0.57975518  0.25504237  0.12933502     0.98420
C1473       C  0.53181413  0.16583523  0.21918677     0.99080
N1474       N  0.60786860  0.15453895  0.06726443    -0.06070
N1475       N  0.61233525  0.14987532  0.04041942    -0.62380
N1476       N  0.60772634  0.12410475  0.12777640    -0.04880
N1477       N  0.61410726  0.10673211  0.13839618    -0.63060
N1478       N  0.58493592  0.11139902  0.11286571    -0.05580
N1479       N  0.57523117  0.08512519  0.11300705    -0.62650
N1480       N  0.63078774  0.16718830  0.08209209    -0.04480
N1481       N  0.65119815  0.17123348  0.06551425    -0.63340
Mn1482     Mn  0.56890709  0.13319089  0.08914838     1.10660
C1483       C  0.63939451  0.16078735  0.03953053     0.99640
C1484       C  0.59345284  0.08260924  0.12924993     0.99720
N1485       N  0.62073293  0.18125832  0.19221735    -0.05590
N1486       N  0.62466730  0.17975317  0.22017502    -0.60960
N1487       N  0.65263846  0.21267086  0.13188912    -0.04910
N1488       N  0.67634183  0.22970398  0.12097323    -0.57690
N1489       N  0.64310666  0.22577650  0.14688142    -0.06220
N1490       N  0.66009548  0.25202438  0.14638226    -0.60530
N1491       N  0.63044904  0.16843202  0.17705836    -0.05200
N1492       N  0.64103344  0.15788258  0.19420285    -0.57710
Mn1493     Mn  0.60453085  0.20429921  0.16999664     1.20190
Mn1494     Mn  0.63104770  0.16831163  0.12970633     1.10090
Cl1495     Cl  0.58677340  0.16887736  0.12920360    -0.85680
C1496       C  0.63725953  0.16503187  0.22090150     0.96650
C1497       C  0.68051572  0.25407474  0.12999840     0.96450
N1498       N  0.89423523  0.41925915  0.10706179    -0.05840
N1499       N  0.92051225  0.42872317  0.10844631    -0.57960
N1500       N  0.83666201  0.37407492  0.07456625    -0.05520
N1501       N  0.83050900  0.35324797  0.05702750    -0.60090
N1502       N  0.84982436  0.39682384  0.06052855    -0.05120
N1503       N  0.85267887  0.39177193  0.03323197    -0.57930
N1504       N  0.88124940  0.39641888  0.12077525    -0.04790
N1505       N  0.89838498  0.38980469  0.13190217    -0.60440
C1506       C  0.92267111  0.41030132  0.12422633     0.96340
C1507       C  0.84010872  0.36457586  0.03124333     0.96120
N1508       N  0.78084048  0.36343283  0.14058590    -0.06020
N1509       N  0.75461929  0.34641670  0.14176123    -0.58540
N1510       N  0.83906495  0.37525981  0.16943017    -0.04140
N1511       N  0.85084844  0.36533118  0.18571794    -0.59790
N1512       N  0.82757910  0.38585635  0.18540700    -0.06050
N1513       N  0.83124200  0.38311275  0.21316899    -0.58800
N1514       N  0.79270751  0.35309394  0.12481439    -0.03790
N1515       N  0.77476434  0.32866986  0.11512399    -0.59880
Mn1516     Mn  0.83711728  0.37403099  0.12219010     1.18440
C1517       C  0.75114610  0.32505866  0.12557859     0.98420
C1518       C  0.84590747  0.37038451  0.21283325     0.99080
N1519       N  0.85158284  0.45378142  0.06123478    -0.06070
N1520       N  0.85723772  0.46353655  0.03494267    -0.62380
N1521       N  0.88224612  0.48455739  0.12270203    -0.04880
N1522       N  0.89944554  0.00835781  0.13424158    -0.63060
N1523       N  0.89509876  0.47447879  0.10833107    -0.05580
N1524       N  0.92141922  0.49128194  0.10970445    -0.62650
N1525       N  0.83891171  0.46415134  0.07563449    -0.04480
N1526       N  0.83601051  0.48129371  0.05922457    -0.63340
Mn1527     Mn  0.87284195  0.43609013  0.08379267     1.10660
C1528       C  0.84705832  0.48027586  0.03377908     0.99640
C1529       C  0.92368219  0.01204295  0.12619144     0.99720
N1530       N  0.82746631  0.44209607  0.18621791    -0.05590
N1531       N  0.82957957  0.44834306  0.21414301    -0.60960
N1532       N  0.79354292  0.44056772  0.12576686    -0.04910
N1533       N  0.77587975  0.44732076  0.11638067    -0.57690
N1534       N  0.78132222  0.41853855  0.14112776    -0.06220
N1535       N  0.75514625  0.40977446  0.14224796    -0.60530
N1536       N  0.83931822  0.46417894  0.17101139    -0.05200
N1537       N  0.84989954  0.48581115  0.18812554    -0.57710
Mn1538     Mn  0.80391657  0.40228328  0.16415161     1.20190
Mn1539     Mn  0.83813276  0.46363737  0.12359488     1.10090
Cl1540     Cl  0.83778320  0.41892758  0.12322360    -0.85680
C1541       C  0.84373235  0.47566556  0.21482697     0.96650
C1542       C  0.75205812  0.42772496  0.12654692     0.96450
C1543       C  0.96895651  0.05827537  0.13142930    -0.12990
C1544       C  0.94840952  0.03686120  0.13066656    -0.14550
C1545       C  0.70505399  0.27898730  0.12542578    -0.12990
C1546       C  0.72606626  0.29998514  0.12390711    -0.14550
C1547       C  0.65448406  0.15073968  0.26671103    -0.12990
C1548       C  0.64673054  0.15843944  0.24665308    -0.14550
C1549       C  0.66074450  0.14730196  0.49657864    -0.12990
C1550       C  0.65246130  0.15482335  0.01649970    -0.14550
C1551       C  0.65222428  0.49930309  0.01315529    -0.12990
C1552       C  0.66028659  0.01503732  0.49355478    -0.14550
C1553       C  0.64765453  0.49276230  0.24247485    -0.12990
C1554       C  0.65570057  0.00846253  0.26277190    -0.14550
C1555       C  0.59300664  0.05763128  0.13228792    -0.12990
C1556       C  0.59284755  0.03658105  0.13152058    -0.14550
C1557       C  0.58028448  0.28009028  0.12534055    -0.12990
C1558       C  0.58026663  0.30110120  0.12444535    -0.14550
C1559       C  0.70591130  0.42796670  0.12519136    -0.12990
C1560       C  0.72701115  0.42791220  0.12453110    -0.14550
C1561       C  0.96851239  0.41061312  0.12846345    -0.12990
C1562       C  0.94750178  0.41055100  0.12846045    -0.14550
C1563       C  0.50943677  0.15688151  0.01439505    -0.12990
C1564       C  0.99360645  0.14930300  0.49437215    -0.14550
C1565       C  0.51554760  0.15909805  0.24456280    -0.12990
C1566       C  0.00017656  0.15121857  0.26450869    -0.14550
C1567       C  0.86173098  0.01562325  0.49171209    -0.12990
C1568       C  0.85393405  0.49973938  0.01123247    -0.14550
C1569       C  0.85821722  0.00807859  0.26088735    -0.12990
C1570       C  0.85053049  0.49239266  0.24054730    -0.14550
C1571       C  0.56031064  0.09409371  0.38726946    -0.12990
C1572       C  0.53936885  0.09421808  0.38692948    -0.14610
C1573       C  0.78175753  0.07916992  0.37360014    -0.12990
C1574       C  0.80289937  0.07927183  0.37310325    -0.14550
C1575       C  0.99595747  0.34347741  0.48777920    -0.12990
C1576       C  0.51197742  0.35161804  0.00775704    -0.14550
C1577       C  0.99588822  0.35521285  0.25799009    -0.12990
C1578       C  0.51171137  0.36271210  0.23825752    -0.14550
C1579       C  0.91138216  0.44635761  0.37813765    -0.12990
C1580       C  0.91186492  0.46750355  0.37718808    -0.14550
C1581       C  0.92836492  0.22603158  0.37009685    -0.12990
C1582       C  0.92863516  0.20528513  0.37335271    -0.14550
C1583       C  0.56024033  0.46780241  0.37908040    -0.12990
C1584       C  0.53916339  0.44699677  0.37964545    -0.14550
C1585       C  0.78217876  0.20417515  0.37489975    -0.12990
C1586       C  0.80305839  0.22493075  0.37123572    -0.14550
C1587       C  0.85171351  0.34224326  0.48751748    -0.12990
C1588       C  0.84402287  0.35056473  0.00732080    -0.14550
C1589       C  0.85471920  0.36215114  0.23796782    -0.12990
C1590       C  0.86266545  0.35450801  0.25796911    -0.14550
N1591       N  0.92063812  0.39245296  0.89332637    -0.05840
N1592       N  0.92965161  0.41858464  0.89526770    -0.57960
N1593       N  0.87496733  0.33444335  0.92074191    -0.05520
N1594       N  0.85412393  0.32871822  0.93742040    -0.60090
N1595       N  0.89763770  0.34677621  0.93601887    -0.05120
N1596       N  0.89255343  0.34949769  0.96326429    -0.57930
N1597       N  0.89801136  0.38016923  0.87809243    -0.04790
N1598       N  0.89106287  0.39768431  0.86927749    -0.60440
C1599       C  0.91112103  0.42143031  0.88003390     0.96340
C1600       C  0.86537662  0.33769131  0.96394964     0.96120
N1601       N  0.86473540  0.28004804  0.85156622    -0.06020
N1602       N  0.84800945  0.25368877  0.85046148    -0.58540
N1603       N  0.87696722  0.33896771  0.82597312    -0.04140
N1604       N  0.86672097  0.35070110  0.81012163    -0.59790
N1605       N  0.88736768  0.32755317  0.80952194    -0.06050
N1606       N  0.88419229  0.33125546  0.78191675    -0.58800
N1607       N  0.85470823  0.29198153  0.86780169    -0.03790
N1608       N  0.83097876  0.27406927  0.87793754    -0.59880
Mn1609     Mn  0.87552748  0.33612877  0.87316251     1.18440
C1610       C  0.82720472  0.25037402  0.86706368     0.98420
C1611       C  0.87142363  0.34585929  0.78281483     0.99080
N1612       N  0.95382839  0.34733457  0.93607800    -0.06070
N1613       N  0.96189936  0.35024086  0.96332800    -0.62380
N1614       N  0.98608886  0.38092601  0.87813576    -0.04880
N1615       N  0.51060417  0.39858723  0.86971595    -0.63060
N1616       N  0.97564209  0.39297605  0.89337500    -0.05580
N1617       N  0.99277290  0.41911148  0.89571743    -0.62650
N1618       N  0.96433827  0.33528035  0.92082384    -0.04480
N1619       N  0.97984804  0.32994171  0.93753601    -0.63340
Mn1620     Mn  0.93697668  0.36998578  0.91507509     1.10660
C1621       C  0.97763056  0.33884798  0.96405436     0.99640
C1622       C  0.51424112  0.42218810  0.88068238     0.99720
N1623       N  0.94426214  0.32811191  0.80941001    -0.05590
N1624       N  0.95103839  0.33177004  0.78180684    -0.60960
N1625       N  0.94231587  0.29271743  0.86770579    -0.04910
N1626       N  0.94873082  0.27508022  0.87749706    -0.57690
N1627       N  0.92026035  0.28052384  0.85142033    -0.06220
N1628       N  0.91115659  0.25427454  0.84994581    -0.60530
N1629       N  0.96616821  0.33984527  0.82593138    -0.05200
N1630       N  0.98808385  0.35175953  0.81013744    -0.57710
Mn1631     Mn  0.90388608  0.30354467  0.82946981     1.20190
Mn1632     Mn  0.96506396  0.33693023  0.87317270     1.10090
Cl1633     Cl  0.92023743  0.33639908  0.87276441    -0.85680
C1634       C  0.97844896  0.34671879  0.78277374     0.96650
C1635       C  0.92906234  0.25127172  0.86637166     0.96450
N1636       N  0.95733922  0.10755207  0.81579461    -0.05840
N1637       N  0.96612111  0.11148938  0.78904417    -0.57960
N1638       N  0.98783768  0.10892190  0.87743176    -0.05520
N1639       N  0.51134168  0.11546925  0.88955777    -0.60090
N1640       N  0.97792061  0.08577219  0.86316656    -0.05120
N1641       N  0.99443024  0.07602492  0.86518656    -0.57930
N1642       N  0.96723114  0.13073396  0.83011820    -0.04790
N1643       N  0.98311063  0.15083387  0.81328394    -0.60440
C1644       C  0.98173422  0.13850076  0.78765684     0.96340
C1645       C  0.51490354  0.09459845  0.88194097     0.96120
N1646       N  0.94385881  0.12193277  0.93986788    -0.06020
N1647       N  0.94973128  0.12639578  0.96783382    -0.58540
N1648       N  0.94319234  0.15304883  0.87913733    -0.04140
N1649       N  0.94965302  0.17685835  0.86875026    -0.59790
N1650       N  0.92076333  0.14339956  0.89404299    -0.06050
N1651       N  0.91143426  0.16036150  0.89392323    -0.58800
N1652       N  0.96622338  0.13196363  0.92489009    -0.03790
N1653       N  0.98765520  0.14321606  0.94211112    -0.59880
Mn1654     Mn  0.96651890  0.13184343  0.87773881     1.18440
C1655       C  0.97710954  0.13959929  0.96866965     0.98420
C1656       C  0.92954404  0.18095893  0.87797651     0.99080
N1657       N  0.92311717  0.03109067  0.86093512    -0.06070
N1658       N  0.93179316  0.01366135  0.86055931    -0.62380
N1659       N  0.87836122  0.04205576  0.82757116    -0.04880
N1660       N  0.85832279  0.02577155  0.80983220    -0.63060
N1661       N  0.90161272  0.05203558  0.81414507    -0.05580
N1662       N  0.89773921  0.04290967  0.78717356    -0.62650
N1663       N  0.89996627  0.02117766  0.87436865    -0.04480
N1664       N  0.89233464  0.49673578  0.88350465    -0.63340
Mn1665     Mn  0.94011736  0.06909615  0.83813525     1.10660
C1666       C  0.91254069  0.49260201  0.87493274     0.99640
C1667       C  0.87072206  0.02698651  0.78463764     0.99720
N1668       N  0.86585282  0.08839277  0.89275375    -0.05590
N1669       N  0.84874486  0.09753400  0.89286973    -0.60960
N1670       N  0.87753548  0.04294630  0.92284791    -0.04910
N1671       N  0.86695091  0.02161192  0.93936363    -0.57690
N1672       N  0.88758616  0.06533245  0.93866032    -0.06220
N1673       N  0.88380202  0.05951123  0.96645297    -0.60530
N1674       N  0.85609283  0.06596338  0.87704663    -0.05200
N1675       N  0.83200751  0.05929122  0.86634256    -0.57710
Mn1676     Mn  0.90426984  0.10496800  0.91719982     1.20190
Mn1677     Mn  0.87731422  0.04269314  0.87536542     1.10090
Cl1678     Cl  0.92196067  0.08722612  0.87697729    -0.85680
C1679       C  0.82795981  0.07936830  0.87612485     0.96650
C1680       C  0.87098030  0.03214877  0.96640462     0.96450
N1681       N  0.56330801  0.38608031  0.68672542    -0.05840
N1682       N  0.55656862  0.38346288  0.71435606    -0.57960
N1683       N  0.56606540  0.35366262  0.62615635    -0.05520
N1684       N  0.55991290  0.32950590  0.61600750    -0.60090
N1685       N  0.58811462  0.36391985  0.64241458    -0.05120
N1686       N  0.59753992  0.34709366  0.64346818    -0.57930
N1687       N  0.54136314  0.37543199  0.67028729    -0.04790
N1688       N  0.51945571  0.36561627  0.68611813    -0.60440
C1689       C  0.52912894  0.37075000  0.71345600     0.96340
C1690       C  0.57993635  0.32595148  0.62671614     0.96120
N1691       N  0.55282282  0.39738115  0.56142875    -0.06020
N1692       N  0.54484630  0.39254008  0.53408048    -0.58540
N1693       N  0.52064969  0.39660251  0.62115917    -0.04140
N1694       N  0.99687550  0.38991103  0.63205846    -0.59790
N1695       N  0.53054528  0.41949833  0.60754794    -0.06050
N1696       N  0.51372383  0.42892971  0.60876183    -0.58800
N1697       N  0.54311998  0.37454321  0.57532168    -0.03790
N1698       N  0.52825432  0.35385582  0.55760366    -0.59880
Mn1699     Mn  0.54245999  0.37436135  0.62301078     1.18440
C1700       C  0.53001776  0.36537045  0.53187201     0.98420
C1701       C  0.99309613  0.41040954  0.62433775     0.99080
N1702       N  0.64282507  0.41917985  0.64359545    -0.06070
N1703       N  0.66012983  0.41025466  0.64429316    -0.62380
N1704       N  0.63016094  0.46457591  0.67300236    -0.04880
N1705       N  0.64141756  0.48620160  0.69010909    -0.63060
N1706       N  0.61991166  0.44247883  0.68820368    -0.05580
N1707       N  0.62424310  0.44872145  0.71612777    -0.62650
N1708       N  0.65253881  0.44122896  0.62826460    -0.04480
N1709       N  0.67670991  0.44782208  0.61845215    -0.63340
Mn1710     Mn  0.60371740  0.40268339  0.66615668     1.10660
C1711       C  0.68096724  0.42816961  0.62837816     0.99640
C1712       C  0.63753587  0.47604230  0.71679514     0.99720
N1713       N  0.58482235  0.47470884  0.60938704    -0.05590
N1714       N  0.57505851  0.49126574  0.61041445    -0.60960
N1715       N  0.63102027  0.46456516  0.57780149    -0.04910
N1716       N  0.65127924  0.48138359  0.56153417    -0.57690
N1717       N  0.60806605  0.45416331  0.56301902    -0.06220
N1718       N  0.61241102  0.46357113  0.53657338    -0.60530
N1719       N  0.60769563  0.48495928  0.62412811    -0.05200
N1720       N  0.61402410  0.00869473  0.63558560    -0.57710
Mn1721     Mn  0.56894247  0.43646571  0.58488831     1.20190
Mn1722     Mn  0.63100305  0.46414771  0.62564387     1.10090
Cl1723     Cl  0.58674994  0.41927768  0.62469108    -0.85680
C1724       C  0.59333829  0.01210005  0.62706244     0.96650
C1725       C  0.63940170  0.48011328  0.53576724     0.96450
N1726       N  0.72814840  0.14268254  0.89624396    -0.05840
N1727       N  0.75448886  0.15951097  0.89595715    -0.57960
N1728       N  0.67130155  0.13106844  0.92695253    -0.05520
N1729       N  0.66087997  0.14190293  0.94422951    -0.60090
N1730       N  0.68370131  0.12100225  0.94193021    -0.05120
N1731       N  0.68208410  0.12501427  0.96993045    -0.57930
N1732       N  0.71530987  0.15234805  0.88129559    -0.04790
N1733       N  0.73266636  0.17603219  0.87070835    -0.60440
C1734       C  0.75692424  0.18003666  0.87987128     0.96340
C1735       C  0.66772295  0.13799567  0.97081120     0.96120
N1736       N  0.61321756  0.08530714  0.86474923    -0.06020
N1737       N  0.58694864  0.07566975  0.86632832    -0.58540
N1738       N  0.66863462  0.13044916  0.83198187    -0.04140
N1739       N  0.67217044  0.15049016  0.81533875    -0.59790
N1740       N  0.65537273  0.10729011  0.81757050    -0.06050
N1741       N  0.64989150  0.11120272  0.79097968    -0.58800
N1742       N  0.62649438  0.10837251  0.87917063    -0.03790
N1743       N  0.60956007  0.11498579  0.89095911    -0.59880
Mn1744     Mn  0.67075693  0.13125810  0.87970912     1.18440
C1745       C  0.58508328  0.09421903  0.88299544     0.98420
C1746       C  0.66083815  0.13816927  0.78973284     0.99080
N1747       N  0.68349199  0.06463533  0.94058878    -0.06070
N1748       N  0.68182533  0.05882479  0.96835480    -0.62380
N1749       N  0.71516778  0.06529839  0.87910543    -0.04880
N1750       N  0.73245720  0.05879659  0.86796804    -0.63060
N1751       N  0.72804506  0.08770685  0.89484008    -0.05580
N1752       N  0.75434150  0.09699180  0.89457473    -0.62650
N1753       N  0.67094684  0.04226590  0.92476257    -0.04480
N1754       N  0.66042087  0.02092401  0.94125584    -0.63340
Mn1755     Mn  0.70633202  0.10424294  0.91930883     1.10660
C1756       C  0.66729941  0.03148137  0.96827476     0.99640
C1757       C  0.75673073  0.07891764  0.87756373     0.99720
N1758       N  0.65577347  0.05183260  0.81605754    -0.05590
N1759       N  0.65076581  0.04300314  0.78897168    -0.60960
N1760       N  0.62636161  0.02071060  0.87608773    -0.04910
N1761       N  0.60929374  0.49638100  0.88535087    -0.57690
N1762       N  0.61328802  0.03082735  0.86254942    -0.06220
N1763       N  0.58708730  0.01371959  0.86224071    -0.60530
N1764       N  0.66898268  0.04177530  0.82961806    -0.05200
N1765       N  0.67298347  0.02577767  0.81188694    -0.57710
Mn1766     Mn  0.63432914  0.06878951  0.83987589     1.20190
Mn1767     Mn  0.67064826  0.04211615  0.87730476     1.10090
Cl1768     Cl  0.67082918  0.08674895  0.87888610    -0.85680
C1769       C  0.66198453  0.02721860  0.78655021     0.96650
C1770       C  0.58500137  0.49259775  0.87674063     0.96450
N1771       N  0.53077035  0.11194728  0.61200490    -0.05840
N1772       N  0.51413527  0.08569986  0.61234851    -0.57960
N1773       N  0.54224487  0.16820625  0.58081344    -0.05520
N1774       N  0.52659252  0.17291785  0.56365399    -0.60090
N1775       N  0.55228665  0.15521639  0.56646541    -0.05120
N1776       N  0.54369696  0.15097073  0.53935077    -0.57930
N1777       N  0.52072334  0.12484331  0.62638684    -0.04790
N1778       N  0.99687298  0.10758122  0.63684710    -0.60440
C1779       C  0.99335104  0.08335646  0.62812035     0.96340
C1780       C  0.52814883  0.16251135  0.53781972     0.96120
N1781       N  0.58829173  0.22628413  0.64617019    -0.06020
N1782       N  0.59781067  0.25257444  0.64602628    -0.58540
N1783       N  0.54249079  0.16923291  0.67563834    -0.04140
N1784       N  0.52113441  0.15888236  0.69229682    -0.59790
N1785       N  0.56490855  0.18173839  0.69127177    -0.06050
N1786       N  0.55916813  0.18020005  0.71907726    -0.58800
N1787       N  0.56576609  0.21352287  0.63071271    -0.03790
N1788       N  0.55944412  0.23085964  0.61982515    -0.59880
Mn1789     Mn  0.54233773  0.16915578  0.62835541     1.18440
C1790       C  0.57975517  0.25504236  0.62933502     0.98420
C1791       C  0.53181413  0.16583523  0.71918677     0.99080
N1792       N  0.60786860  0.15453894  0.56726443    -0.06070
N1793       N  0.61233524  0.14987531  0.54041942    -0.62380
N1794       N  0.60772634  0.12410475  0.62777640    -0.04880
N1795       N  0.61410726  0.10673210  0.63839618    -0.63060
N1796       N  0.58493592  0.11139901  0.61286571    -0.05580
N1797       N  0.57523117  0.08512519  0.61300705    -0.62650
N1798       N  0.63078774  0.16718829  0.58209209    -0.04480
N1799       N  0.65119814  0.17123348  0.56551425    -0.63340
Mn1800     Mn  0.56890709  0.13319089  0.58914839     1.10660
C1801       C  0.63939450  0.16078734  0.53953053     0.99640
C1802       C  0.59345284  0.08260923  0.62924992     0.99720
N1803       N  0.62073293  0.18125832  0.69221735    -0.05590
N1804       N  0.62466730  0.17975317  0.72017502    -0.60960
N1805       N  0.65263846  0.21267086  0.63188912    -0.04910
N1806       N  0.67634183  0.22970398  0.62097323    -0.57690
N1807       N  0.64310665  0.22577650  0.64688141    -0.06220
N1808       N  0.66009548  0.25202437  0.64638226    -0.60530
N1809       N  0.63044904  0.16843202  0.67705836    -0.05200
N1810       N  0.64103344  0.15788258  0.69420285    -0.57710
Mn1811     Mn  0.60453084  0.20429921  0.66999664     1.20190
Mn1812     Mn  0.63104770  0.16831163  0.62970633     1.10090
Cl1813     Cl  0.58677340  0.16887736  0.62920361    -0.85680
C1814       C  0.63725953  0.16503187  0.72090150     0.96650
C1815       C  0.68051572  0.25407474  0.62999840     0.96450
N1816       N  0.89423522  0.41925914  0.60706179    -0.05840
N1817       N  0.92051225  0.42872317  0.60844631    -0.57960
N1818       N  0.83666200  0.37407492  0.57456625    -0.05520
N1819       N  0.83050899  0.35324796  0.55702750    -0.60090
N1820       N  0.84982436  0.39682384  0.56052855    -0.05120
N1821       N  0.85267886  0.39177192  0.53323197    -0.57930
N1822       N  0.88124940  0.39641888  0.62077525    -0.04790
N1823       N  0.89838498  0.38980468  0.63190218    -0.60440
C1824       C  0.92267111  0.41030132  0.62422634     0.96340
C1825       C  0.84010871  0.36457586  0.53124333     0.96120
N1826       N  0.78084048  0.36343283  0.64058591    -0.06020
N1827       N  0.75461929  0.34641670  0.64176123    -0.58540
N1828       N  0.83906495  0.37525981  0.66943017    -0.04140
N1829       N  0.85084844  0.36533118  0.68571794    -0.59790
N1830       N  0.82757911  0.38585635  0.68540701    -0.06050
N1831       N  0.83124200  0.38311275  0.71316900    -0.58800
N1832       N  0.79270751  0.35309394  0.62481439    -0.03790
N1833       N  0.77476433  0.32866985  0.61512400    -0.59880
Mn1834     Mn  0.83711727  0.37403098  0.62219010     1.18440
C1835       C  0.75114610  0.32505866  0.62557860     0.98420
C1836       C  0.84590748  0.37038450  0.71283325     0.99080
N1837       N  0.85158284  0.45378142  0.56123478    -0.06070
N1838       N  0.85723772  0.46353655  0.53494267    -0.62380
N1839       N  0.88224613  0.48455739  0.62270203    -0.04880
N1840       N  0.89944554  0.00835781  0.63424159    -0.63060
N1841       N  0.89509876  0.47447878  0.60833107    -0.05580
N1842       N  0.92141922  0.49128193  0.60970445    -0.62650
N1843       N  0.83891171  0.46415134  0.57563449    -0.04480
N1844       N  0.83601051  0.48129371  0.55922457    -0.63340
Mn1845     Mn  0.87284194  0.43609012  0.58379267     1.10660
C1846       C  0.84705832  0.48027586  0.53377908     0.99640
C1847       C  0.92368220  0.01204295  0.62619145     0.99720
N1848       N  0.82746632  0.44209607  0.68621791    -0.05590
N1849       N  0.82957958  0.44834306  0.71414301    -0.60960
N1850       N  0.79354293  0.44056772  0.62576687    -0.04910
N1851       N  0.77587975  0.44732076  0.61638067    -0.57690
N1852       N  0.78132222  0.41853855  0.64112777    -0.06220
N1853       N  0.75514626  0.40977446  0.64224797    -0.60530
N1854       N  0.83931823  0.46417894  0.67101139    -0.05200
N1855       N  0.84989955  0.48581116  0.68812554    -0.57710
Mn1856     Mn  0.80391658  0.40228328  0.66415162     1.20190
Mn1857     Mn  0.83813277  0.46363737  0.62359488     1.10090
Cl1858     Cl  0.83778320  0.41892758  0.62322360    -0.85680
C1859       C  0.84373236  0.47566556  0.71482698     0.96650
C1860       C  0.75205812  0.42772496  0.62654692     0.96450
C1861       C  0.96895651  0.05827537  0.63142932    -0.12990
C1862       C  0.94840952  0.03686119  0.63066658    -0.14550
C1863       C  0.70505398  0.27898730  0.62542578    -0.12990
C1864       C  0.72606626  0.29998515  0.62390711    -0.14550
C1865       C  0.65448407  0.15073968  0.76671103    -0.12990
C1866       C  0.64673054  0.15843944  0.74665307    -0.14550
C1867       C  0.66074451  0.14730197  0.99657864    -0.12990
C1868       C  0.65246130  0.15482334  0.51649970    -0.14550
C1869       C  0.65222427  0.49930308  0.51315528    -0.12990
C1870       C  0.66028660  0.01503732  0.99355478    -0.14550
C1871       C  0.64765453  0.49276230  0.74247485    -0.12990
C1872       C  0.65570057  0.00846253  0.76277190    -0.14550
C1873       C  0.59300664  0.05763128  0.63228791    -0.12990
C1874       C  0.59284755  0.03658105  0.63152057    -0.14550
C1875       C  0.58028448  0.28009028  0.62534054    -0.12990
C1876       C  0.58026663  0.30110120  0.62444534    -0.14550
C1877       C  0.70591130  0.42796670  0.62519136    -0.12990
C1878       C  0.72701116  0.42791220  0.62453110    -0.14550
C1879       C  0.96851239  0.41061312  0.62846346    -0.12990
C1880       C  0.94750178  0.41055100  0.62846046    -0.14550
C1881       C  0.50943677  0.15688151  0.51439505    -0.12990
C1882       C  0.99360645  0.14930300  0.99437215    -0.14550
C1883       C  0.51554761  0.15909805  0.74456280    -0.12990
C1884       C  0.00017655  0.15121858  0.76450869    -0.14550
C1885       C  0.86173097  0.01562325  0.99171209    -0.12990
C1886       C  0.85393405  0.49973938  0.51123247    -0.14550
C1887       C  0.85821721  0.00807859  0.76088735    -0.12990
C1888       C  0.85053050  0.49239266  0.74054730    -0.14550
C1889       C  0.56031065  0.09409372  0.88726945    -0.12990
C1890       C  0.53936886  0.09421808  0.88692947    -0.14610
C1891       C  0.78175753  0.07916993  0.87360014    -0.12990
C1892       C  0.80289938  0.07927183  0.87310324    -0.14550
C1893       C  0.99595749  0.34347742  0.98777920    -0.12990
C1894       C  0.51197741  0.35161802  0.50775705    -0.14550
C1895       C  0.99588822  0.35521284  0.75799009    -0.12990
C1896       C  0.51171136  0.36271210  0.73825752    -0.14550
C1897       C  0.91138217  0.44635761  0.87813766    -0.12990
C1898       C  0.91186493  0.46750355  0.87718808    -0.14550
C1899       C  0.92836493  0.22603158  0.87009686    -0.12990
C1900       C  0.92863516  0.20528513  0.87335272    -0.14550
C1901       C  0.56024033  0.46780241  0.87908039    -0.12990
C1902       C  0.53916339  0.44699678  0.87964545    -0.14550
C1903       C  0.78217877  0.20417516  0.87489975    -0.12990
C1904       C  0.80305840  0.22493075  0.87123572    -0.14550
C1905       C  0.85171352  0.34224326  0.98751748    -0.12990
C1906       C  0.84402285  0.35056473  0.50732080    -0.14550
C1907       C  0.85471921  0.36215114  0.73796782    -0.12990
C1908       C  0.86266546  0.35450801  0.75796911    -0.14550
N1909       N  0.92063812  0.89245296  0.39332637    -0.05840
N1910       N  0.92965162  0.91858464  0.39526770    -0.57960
N1911       N  0.87496733  0.83444335  0.42074191    -0.05520
N1912       N  0.85412393  0.82871822  0.43742040    -0.60090
N1913       N  0.89763770  0.84677621  0.43601887    -0.05120
N1914       N  0.89255343  0.84949769  0.46326429    -0.57930
N1915       N  0.89801136  0.88016923  0.37809243    -0.04790
N1916       N  0.89106287  0.89768431  0.36927750    -0.60440
C1917       C  0.91112104  0.92143031  0.38003390     0.96340
C1918       C  0.86537662  0.83769131  0.46394964     0.96120
N1919       N  0.86473539  0.78004804  0.35156622    -0.06020
N1920       N  0.84800944  0.75368876  0.35046148    -0.58540
N1921       N  0.87696722  0.83896771  0.32597312    -0.04140
N1922       N  0.86672097  0.85070110  0.31012163    -0.59790
N1923       N  0.88736768  0.82755317  0.30952193    -0.06050
N1924       N  0.88419228  0.83125546  0.28191675    -0.58800
N1925       N  0.85470823  0.79198153  0.36780169    -0.03790
N1926       N  0.83097876  0.77406927  0.37793754    -0.59880
Mn1927     Mn  0.87552747  0.83612877  0.37316251     1.18440
C1928       C  0.82720471  0.75037402  0.36706368     0.98420
C1929       C  0.87142363  0.84585929  0.28281483     0.99080
N1930       N  0.95382839  0.84733457  0.43607800    -0.06070
N1931       N  0.96189936  0.85024085  0.46332799    -0.62380
N1932       N  0.98608886  0.88092600  0.37813575    -0.04880
N1933       N  0.51060417  0.89858722  0.36971596    -0.63060
N1934       N  0.97564209  0.89297604  0.39337500    -0.05580
N1935       N  0.99277290  0.91911148  0.39571743    -0.62650
N1936       N  0.96433826  0.83528034  0.42082384    -0.04480
N1937       N  0.97984803  0.82994170  0.43753600    -0.63340
Mn1938     Mn  0.93697668  0.86998577  0.41507509     1.10660
C1939       C  0.97763056  0.83884798  0.46405435     0.99640
C1940       C  0.51424112  0.92218809  0.38068238     0.99720
N1941       N  0.94426214  0.82811191  0.30941001    -0.05590
N1942       N  0.95103839  0.83177004  0.28180683    -0.60960
N1943       N  0.94231586  0.79271742  0.36770578    -0.04910
N1944       N  0.94873081  0.77508021  0.37749706    -0.57690
N1945       N  0.92026034  0.78052383  0.35142032    -0.06220
N1946       N  0.91115658  0.75427453  0.34994580    -0.60530
N1947       N  0.96616820  0.83984526  0.32593138    -0.05200
N1948       N  0.98808385  0.85175953  0.31013743    -0.57710
Mn1949     Mn  0.90388607  0.80354467  0.32946980     1.20190
Mn1950     Mn  0.96506396  0.83693023  0.37317269     1.10090
Cl1951     Cl  0.92023743  0.83639907  0.37276440    -0.85680
C1952       C  0.97844895  0.84671878  0.28277374     0.96650
C1953       C  0.92906232  0.75127171  0.36637166     0.96450
N1954       N  0.95733922  0.60755207  0.31579461    -0.05840
N1955       N  0.96612111  0.61148938  0.28904418    -0.57960
N1956       N  0.98783768  0.60892190  0.37743176    -0.05520
N1957       N  0.51134167  0.61546925  0.38955778    -0.60090
N1958       N  0.97792061  0.58577219  0.36316656    -0.05120
N1959       N  0.99443024  0.57602493  0.36518656    -0.57930
N1960       N  0.96723113  0.63073396  0.33011820    -0.04790
N1961       N  0.98311063  0.65083387  0.31328395    -0.60440
C1962       C  0.98173423  0.63850076  0.28765684     0.96340
C1963       C  0.51490354  0.59459846  0.38194098     0.96120
N1964       N  0.94385881  0.62193277  0.43986788    -0.06020
N1965       N  0.94973127  0.62639578  0.46783383    -0.58540
N1966       N  0.94319233  0.65304883  0.37913733    -0.04140
N1967       N  0.94965301  0.67685835  0.36875025    -0.59790
N1968       N  0.92076332  0.64339956  0.39404299    -0.06050
N1969       N  0.91143425  0.66036150  0.39392323    -0.58800
N1970       N  0.96622337  0.63196363  0.42489009    -0.03790
N1971       N  0.98765519  0.64321606  0.44211112    -0.59880
Mn1972     Mn  0.96651889  0.63184344  0.37773881     1.18440
C1973       C  0.97710953  0.63959929  0.46866966     0.98420
C1974       C  0.92954402  0.68095892  0.37797651     0.99080
N1975       N  0.92311717  0.53109067  0.36093512    -0.06070
N1976       N  0.93179316  0.51366135  0.36055931    -0.62380
N1977       N  0.87836121  0.54205576  0.32757116    -0.04880
N1978       N  0.85832279  0.52577155  0.30983220    -0.63060
N1979       N  0.90161272  0.55203559  0.31414507    -0.05580
N1980       N  0.89773921  0.54290968  0.28717356    -0.62650
N1981       N  0.89996627  0.52117766  0.37436865    -0.04480
N1982       N  0.89233464  0.99673578  0.38350466    -0.63340
Mn1983     Mn  0.94011736  0.56909615  0.33813525     1.10660
C1984       C  0.91254069  0.99260201  0.37493275     0.99640
C1985       C  0.87072206  0.52698651  0.28463764     0.99720
N1986       N  0.86585281  0.58839277  0.39275375    -0.05590
N1987       N  0.84874485  0.59753400  0.39286973    -0.60960
N1988       N  0.87753548  0.54294630  0.42284791    -0.04910
N1989       N  0.86695091  0.52161192  0.43936363    -0.57690
N1990       N  0.88758615  0.56533245  0.43866032    -0.06220
N1991       N  0.88380202  0.55951123  0.46645297    -0.60530
N1992       N  0.85609282  0.56596338  0.37704663    -0.05200
N1993       N  0.83200750  0.55929121  0.36634256    -0.57710
Mn1994     Mn  0.90426984  0.60496800  0.41719982     1.20190
Mn1995     Mn  0.87731422  0.54269313  0.37536542     1.10090
Cl1996     Cl  0.92196066  0.58722612  0.37697729    -0.85680
C1997       C  0.82795980  0.57936830  0.37612485     0.96650
C1998       C  0.87098030  0.53214877  0.46640462     0.96450
N1999       N  0.56330802  0.88608032  0.18672542    -0.05840
N2000       N  0.55656862  0.88346288  0.21435606    -0.57960
N2001       N  0.56606541  0.85366263  0.12615634    -0.05520
N2002       N  0.55991290  0.82950591  0.11600750    -0.60090
N2003       N  0.58811462  0.86391985  0.14241458    -0.05120
N2004       N  0.59753992  0.84709367  0.14346818    -0.57930
N2005       N  0.54136314  0.87543199  0.17028729    -0.04790
N2006       N  0.51945571  0.86561627  0.18611814    -0.60440
C2007       C  0.52912894  0.87075000  0.21345601     0.96340
C2008       C  0.57993635  0.82595149  0.12671614     0.96120
N2009       N  0.55282282  0.89738117  0.06142876    -0.06020
N2010       N  0.54484630  0.89254009  0.03408048    -0.58540
N2011       N  0.52064969  0.89660252  0.12115917    -0.04140
N2012       N  0.99687551  0.88991103  0.13205845    -0.59790
N2013       N  0.53054529  0.91949835  0.10754795    -0.06050
N2014       N  0.51372384  0.92892972  0.10876184    -0.58800
N2015       N  0.54311998  0.87454323  0.07532168    -0.03790
N2016       N  0.52825432  0.85385584  0.05760366    -0.59880
Mn2017     Mn  0.54246000  0.87436136  0.12301078     1.18440
C2018       C  0.53001777  0.86537047  0.03187201     0.98420
C2019       C  0.99309614  0.91040954  0.12433775     0.99080
N2020       N  0.64282508  0.91917985  0.14359545    -0.06070
N2021       N  0.66012984  0.91025467  0.14429316    -0.62380
N2022       N  0.63016095  0.96457592  0.17300237    -0.04880
N2023       N  0.64141756  0.98620160  0.19010909    -0.63060
N2024       N  0.61991167  0.94247884  0.18820368    -0.05580
N2025       N  0.62424310  0.94872145  0.21612777    -0.62650
N2026       N  0.65253881  0.94122897  0.12826461    -0.04480
N2027       N  0.67670992  0.94782209  0.11845215    -0.63340
Mn2028     Mn  0.60371741  0.90268340  0.16615668     1.10660
C2029       C  0.68096724  0.92816962  0.12837816     0.99640
C2030       C  0.63753587  0.97604230  0.21679514     0.99720
N2031       N  0.58482235  0.97470885  0.10938705    -0.05590
N2032       N  0.57505851  0.99126575  0.11041446    -0.60960
N2033       N  0.63102028  0.96456518  0.07780149    -0.04910
N2034       N  0.65127924  0.98138360  0.06153417    -0.57690
N2035       N  0.60806605  0.95416332  0.06301902    -0.06220
N2036       N  0.61241103  0.96357114  0.03657339    -0.60530
N2037       N  0.60769564  0.98495929  0.12412812    -0.05200
N2038       N  0.61402410  0.50869473  0.13558561    -0.57710
Mn2039     Mn  0.56894248  0.93646573  0.08488831     1.20190
Mn2040     Mn  0.63100306  0.96414772  0.12564387     1.10090
Cl2041     Cl  0.58674994  0.91927768  0.12469108    -0.85680
C2042       C  0.59333829  0.51210006  0.12706244     0.96650
C2043       C  0.63940170  0.98011329  0.03576725     0.96450
N2044       N  0.72814839  0.64268253  0.39624396    -0.05840
N2045       N  0.75448885  0.65951097  0.39595715    -0.57960
N2046       N  0.67130154  0.63106844  0.42695253    -0.05520
N2047       N  0.66087996  0.64190293  0.44422951    -0.60090
N2048       N  0.68370130  0.62100225  0.44193021    -0.05120
N2049       N  0.68208409  0.62501427  0.46993045    -0.57930
N2050       N  0.71530986  0.65234804  0.38129559    -0.04790
N2051       N  0.73266634  0.67603219  0.37070836    -0.60440
C2052       C  0.75692423  0.68003666  0.37987128     0.96340
C2053       C  0.66772294  0.63799566  0.47081120     0.96120
N2054       N  0.61321755  0.58530713  0.36474924    -0.06020
N2055       N  0.58694863  0.57566974  0.36632833    -0.58540
N2056       N  0.66863460  0.63044915  0.33198187    -0.04140
N2057       N  0.67217042  0.65049015  0.31533876    -0.59790
N2058       N  0.65537271  0.60729011  0.31757050    -0.06050
N2059       N  0.64989148  0.61120271  0.29097968    -0.58800
N2060       N  0.62649437  0.60837251  0.37917063    -0.03790
N2061       N  0.60956006  0.61498578  0.39095912    -0.59880
Mn2062     Mn  0.67075692  0.63125809  0.37970912     1.18440
C2063       C  0.58508327  0.59421903  0.38299545     0.98420
C2064       C  0.66083814  0.63816926  0.28973285     0.99080
N2065       N  0.68349198  0.56463532  0.44058878    -0.06070
N2066       N  0.68182532  0.55882479  0.46835480    -0.62380
N2067       N  0.71516777  0.56529838  0.37910543    -0.04880
N2068       N  0.73245719  0.55879658  0.36796804    -0.63060
N2069       N  0.72804505  0.58770684  0.39484008    -0.05580
N2070       N  0.75434149  0.59699180  0.39457473    -0.62650
N2071       N  0.67094683  0.54226589  0.42476257    -0.04480
N2072       N  0.66042087  0.52092401  0.44125584    -0.63340
Mn2073     Mn  0.70633201  0.60424294  0.41930884     1.10660
C2074       C  0.66729941  0.53148137  0.46827476     0.99640
C2075       C  0.75673072  0.57891764  0.37756373     0.99720
N2076       N  0.65577346  0.55183260  0.31605754    -0.05590
N2077       N  0.65076579  0.54300313  0.28897168    -0.60960
N2078       N  0.62636160  0.52071060  0.37608773    -0.04910
N2079       N  0.60929374  0.99638099  0.38535087    -0.57690
N2080       N  0.61328801  0.53082734  0.36254942    -0.06220
N2081       N  0.58708729  0.51371959  0.36224072    -0.60530
N2082       N  0.66898267  0.54177529  0.32961806    -0.05200
N2083       N  0.67298347  0.52577767  0.31188694    -0.57710
Mn2084     Mn  0.63432913  0.56878951  0.33987589     1.20190
Mn2085     Mn  0.67064825  0.54211615  0.37730476     1.10090
Cl2086     Cl  0.67082917  0.58674894  0.37888610    -0.85680
C2087       C  0.66198452  0.52721859  0.28655022     0.96650
C2088       C  0.58500136  0.99259775  0.37674063     0.96450
N2089       N  0.53077035  0.61194728  0.11200490    -0.05840
N2090       N  0.51413528  0.58569986  0.11234850    -0.57960
N2091       N  0.54224487  0.66820625  0.08081344    -0.05520
N2092       N  0.52659252  0.67291786  0.06365399    -0.60090
N2093       N  0.55228665  0.65521640  0.06646541    -0.05120
N2094       N  0.54369697  0.65097074  0.03935077    -0.57930
N2095       N  0.52072334  0.62484331  0.12638683    -0.04790
N2096       N  0.99687298  0.60758123  0.13684710    -0.60440
C2097       C  0.99335104  0.58335646  0.12812035     0.96340
C2098       C  0.52814883  0.66251135  0.03781972     0.96120
N2099       N  0.58829173  0.72628414  0.14617019    -0.06020
N2100       N  0.59781066  0.75257444  0.14602628    -0.58540
N2101       N  0.54249079  0.66923291  0.17563834    -0.04140
N2102       N  0.52113441  0.65888236  0.19229682    -0.59790
N2103       N  0.56490854  0.68173839  0.19127177    -0.06050
N2104       N  0.55916812  0.68020005  0.21907726    -0.58800
N2105       N  0.56576608  0.71352287  0.13071271    -0.03790
N2106       N  0.55944412  0.73085964  0.11982515    -0.59880
Mn2107     Mn  0.54233772  0.66915578  0.12835541     1.18440
C2108       C  0.57975517  0.75504237  0.12933502     0.98420
C2109       C  0.53181412  0.66583523  0.21918677     0.99080
N2110       N  0.60786860  0.65453895  0.06726443    -0.06070
N2111       N  0.61233525  0.64987531  0.04041942    -0.62380
N2112       N  0.60772634  0.62410475  0.12777640    -0.04880
N2113       N  0.61410726  0.60673211  0.13839618    -0.63060
N2114       N  0.58493592  0.61139902  0.11286571    -0.05580
N2115       N  0.57523117  0.58512520  0.11300705    -0.62650
N2116       N  0.63078774  0.66718830  0.08209209    -0.04480
N2117       N  0.65119814  0.67123348  0.06551425    -0.63340
Mn2118     Mn  0.56890709  0.63319089  0.08914839     1.10660
C2119       C  0.63939451  0.66078735  0.03953053     0.99640
C2120       C  0.59345284  0.58260924  0.12924993     0.99720
N2121       N  0.62073293  0.68125833  0.19221735    -0.05590
N2122       N  0.62466729  0.67975317  0.22017502    -0.60960
N2123       N  0.65263846  0.71267087  0.13188912    -0.04910
N2124       N  0.67634183  0.72970398  0.12097323    -0.57690
N2125       N  0.64310665  0.72577650  0.14688142    -0.06220
N2126       N  0.66009547  0.75202438  0.14638226    -0.60530
N2127       N  0.63044903  0.66843203  0.17705836    -0.05200
N2128       N  0.64103344  0.65788259  0.19420285    -0.57710
Mn2129     Mn  0.60453084  0.70429921  0.16999664     1.20190
Mn2130     Mn  0.63104770  0.66831163  0.12970633     1.10090
Cl2131     Cl  0.58677340  0.66887736  0.12920361    -0.85680
C2132       C  0.63725952  0.66503187  0.22090150     0.96650
C2133       C  0.68051571  0.75407474  0.12999840     0.96450
N2134       N  0.89423522  0.91925914  0.10706179    -0.05840
N2135       N  0.92051225  0.92872317  0.10844631    -0.57960
N2136       N  0.83666200  0.87407492  0.07456625    -0.05520
N2137       N  0.83050900  0.85324796  0.05702750    -0.60090
N2138       N  0.84982436  0.89682384  0.06052855    -0.05120
N2139       N  0.85267886  0.89177192  0.03323197    -0.57930
N2140       N  0.88124940  0.89641888  0.12077525    -0.04790
N2141       N  0.89838498  0.88980468  0.13190218    -0.60440
C2142       C  0.92267111  0.91030132  0.12422633     0.96340
C2143       C  0.84010872  0.86457586  0.03124334     0.96120
N2144       N  0.78084048  0.86343283  0.14058590    -0.06020
N2145       N  0.75461929  0.84641670  0.14176123    -0.58540
N2146       N  0.83906495  0.87525981  0.16943017    -0.04140
N2147       N  0.85084844  0.86533118  0.18571795    -0.59790
N2148       N  0.82757910  0.88585635  0.18540701    -0.06050
N2149       N  0.83124200  0.88311275  0.21316900    -0.58800
N2150       N  0.79270751  0.85309394  0.12481439    -0.03790
N2151       N  0.77476433  0.82866986  0.11512400    -0.59880
Mn2152     Mn  0.83711727  0.87403098  0.12219011     1.18440
C2153       C  0.75114610  0.82505866  0.12557859     0.98420
C2154       C  0.84590747  0.87038450  0.21283325     0.99080
N2155       N  0.85158284  0.95378142  0.06123478    -0.06070
N2156       N  0.85723772  0.96353655  0.03494267    -0.62380
N2157       N  0.88224613  0.98455739  0.12270203    -0.04880
N2158       N  0.89944553  0.50835781  0.13424158    -0.63060
N2159       N  0.89509876  0.97447878  0.10833107    -0.05580
N2160       N  0.92141922  0.99128193  0.10970445    -0.62650
N2161       N  0.83891172  0.96415134  0.07563449    -0.04480
N2162       N  0.83601051  0.98129371  0.05922457    -0.63340
Mn2163     Mn  0.87284195  0.93609012  0.08379267     1.10660
C2164       C  0.84705832  0.98027586  0.03377908     0.99640
C2165       C  0.92368219  0.51204296  0.12619144     0.99720
N2166       N  0.82746631  0.94209607  0.18621791    -0.05590
N2167       N  0.82957958  0.94834306  0.21414301    -0.60960
N2168       N  0.79354293  0.94056772  0.12576687    -0.04910
N2169       N  0.77587975  0.94732076  0.11638067    -0.57690
N2170       N  0.78132222  0.91853855  0.14112777    -0.06220
N2171       N  0.75514626  0.90977446  0.14224796    -0.60530
N2172       N  0.83931822  0.96417894  0.17101139    -0.05200
N2173       N  0.84989954  0.98581116  0.18812554    -0.57710
Mn2174     Mn  0.80391658  0.90228328  0.16415162     1.20190
Mn2175     Mn  0.83813277  0.96363736  0.12359488     1.10090
Cl2176     Cl  0.83778320  0.91892758  0.12322360    -0.85680
C2177       C  0.84373235  0.97566556  0.21482698     0.96650
C2178       C  0.75205812  0.92772496  0.12654692     0.96450
C2179       C  0.96895650  0.55827538  0.13142931    -0.12990
C2180       C  0.94840952  0.53686120  0.13066657    -0.14550
C2181       C  0.70505398  0.77898730  0.12542578    -0.12990
C2182       C  0.72606625  0.79998515  0.12390711    -0.14550
C2183       C  0.65448405  0.65073968  0.26671103    -0.12990
C2184       C  0.64673053  0.65843944  0.24665308    -0.14550
C2185       C  0.66074450  0.64730197  0.49657864    -0.12990
C2186       C  0.65246130  0.65482335  0.01649970    -0.14550
C2187       C  0.65222428  0.99930309  0.01315529    -0.12990
C2188       C  0.66028659  0.51503732  0.49355478    -0.14550
C2189       C  0.64765453  0.99276230  0.24247485    -0.12990
C2190       C  0.65570056  0.50846253  0.26277190    -0.14550
C2191       C  0.59300664  0.55763128  0.13228792    -0.12990
C2192       C  0.59284756  0.53658105  0.13152058    -0.14550
C2193       C  0.58028447  0.78009028  0.12534054    -0.12990
C2194       C  0.58026663  0.80110120  0.12444534    -0.14550
C2195       C  0.70591131  0.92796670  0.12519136    -0.12990
C2196       C  0.72701116  0.92791221  0.12453110    -0.14550
C2197       C  0.96851239  0.91061312  0.12846345    -0.12990
C2198       C  0.94750178  0.91055100  0.12846045    -0.14550
C2199       C  0.50943677  0.65688151  0.01439505    -0.12990
C2200       C  0.99360645  0.64930300  0.49437215    -0.14550
C2201       C  0.51554760  0.65909805  0.24456280    -0.12990
C2202       C  0.00017656  0.65121858  0.26450870    -0.14550
C2203       C  0.86173097  0.51562324  0.49171209    -0.12990
C2204       C  0.85393405  0.99973938  0.01123247    -0.14550
C2205       C  0.85821721  0.50807859  0.26088735    -0.12990
C2206       C  0.85053049  0.99239266  0.24054730    -0.14550
C2207       C  0.56031064  0.59409372  0.38726946    -0.12990
C2208       C  0.53936885  0.59421808  0.38692948    -0.14610
C2209       C  0.78175752  0.57916992  0.37360014    -0.12990
C2210       C  0.80289937  0.57927183  0.37310325    -0.14550
C2211       C  0.99595749  0.84347742  0.48777920    -0.12990
C2212       C  0.51197742  0.85161804  0.00775705    -0.14550
C2213       C  0.99588822  0.85521284  0.25799009    -0.12990
C2214       C  0.51171137  0.86271210  0.23825752    -0.14550
C2215       C  0.91138217  0.94635761  0.37813766    -0.12990
C2216       C  0.91186493  0.96750355  0.37718809    -0.14550
C2217       C  0.92836492  0.72603158  0.37009685    -0.12990
C2218       C  0.92863515  0.70528513  0.37335272    -0.14550
C2219       C  0.56024033  0.96780241  0.37908039    -0.12990
C2220       C  0.53916339  0.94699677  0.37964545    -0.14550
C2221       C  0.78217875  0.70417516  0.37489975    -0.12990
C2222       C  0.80305839  0.72493075  0.37123572    -0.14550
C2223       C  0.85171352  0.84224326  0.48751748    -0.12990
C2224       C  0.84402286  0.85056473  0.00732081    -0.14550
C2225       C  0.85471920  0.86215114  0.23796782    -0.12990
C2226       C  0.86266545  0.85450802  0.25796911    -0.14550
N2227       N  0.92063812  0.89245296  0.89332638    -0.05840
N2228       N  0.92965161  0.91858464  0.89526770    -0.57960
N2229       N  0.87496733  0.83444335  0.92074191    -0.05520
N2230       N  0.85412393  0.82871822  0.93742040    -0.60090
N2231       N  0.89763770  0.84677621  0.93601887    -0.05120
N2232       N  0.89255343  0.84949769  0.96326430    -0.57930
N2233       N  0.89801136  0.88016923  0.87809243    -0.04790
N2234       N  0.89106287  0.89768431  0.86927749    -0.60440
C2235       C  0.91112103  0.92143031  0.88003390     0.96340
C2236       C  0.86537662  0.83769131  0.96394964     0.96120
N2237       N  0.86473540  0.78004804  0.85156622    -0.06020
N2238       N  0.84800945  0.75368877  0.85046148    -0.58540
N2239       N  0.87696722  0.83896771  0.82597312    -0.04140
N2240       N  0.86672097  0.85070110  0.81012163    -0.59790
N2241       N  0.88736768  0.82755318  0.80952194    -0.06050
N2242       N  0.88419228  0.83125547  0.78191675    -0.58800
N2243       N  0.85470823  0.79198153  0.86780169    -0.03790
N2244       N  0.83097876  0.77406927  0.87793754    -0.59880
Mn2245     Mn  0.87552747  0.83612878  0.87316251     1.18440
C2246       C  0.82720472  0.75037402  0.86706368     0.98420
C2247       C  0.87142363  0.84585929  0.78281483     0.99080
N2248       N  0.95382839  0.84733457  0.93607800    -0.06070
N2249       N  0.96189936  0.85024086  0.96332800    -0.62380
N2250       N  0.98608886  0.88092601  0.87813576    -0.04880
N2251       N  0.51060418  0.89858724  0.86971596    -0.63060
N2252       N  0.97564209  0.89297605  0.89337501    -0.05580
N2253       N  0.99277290  0.91911148  0.89571743    -0.62650
N2254       N  0.96433827  0.83528035  0.92082384    -0.04480
N2255       N  0.97984804  0.82994171  0.93753601    -0.63340
Mn2256     Mn  0.93697668  0.86998578  0.91507509     1.10660
C2257       C  0.97763056  0.83884799  0.96405435     0.99640
C2258       C  0.51424113  0.92218810  0.88068238     0.99720
N2259       N  0.94426214  0.82811192  0.80941001    -0.05590
N2260       N  0.95103839  0.83177004  0.78180683    -0.60960
N2261       N  0.94231587  0.79271743  0.86770579    -0.04910
N2262       N  0.94873082  0.77508022  0.87749706    -0.57690
N2263       N  0.92026035  0.78052384  0.85142032    -0.06220
N2264       N  0.91115659  0.75427454  0.84994581    -0.60530
N2265       N  0.96616821  0.83984527  0.82593138    -0.05200
N2266       N  0.98808385  0.85175954  0.81013744    -0.57710
Mn2267     Mn  0.90388608  0.80354467  0.82946981     1.20190
Mn2268     Mn  0.96506396  0.83693023  0.87317270     1.10090
Cl2269     Cl  0.92023743  0.83639908  0.87276441    -0.85680
C2270       C  0.97844896  0.84671879  0.78277374     0.96650
C2271       C  0.92906234  0.75127172  0.86637166     0.96450
N2272       N  0.95733923  0.60755208  0.81579462    -0.05840
N2273       N  0.96612112  0.61148938  0.78904418    -0.57960
N2274       N  0.98783769  0.60892190  0.87743177    -0.05520
N2275       N  0.51134167  0.61546925  0.88955777    -0.60090
N2276       N  0.97792062  0.58577219  0.86316656    -0.05120
N2277       N  0.99443024  0.57602493  0.86518657    -0.57930
N2278       N  0.96723114  0.63073397  0.83011820    -0.04790
N2279       N  0.98311064  0.65083387  0.81328395    -0.60440
C2280       C  0.98173423  0.63850076  0.78765684     0.96340
C2281       C  0.51490354  0.59459846  0.88194097     0.96120
N2282       N  0.94385881  0.62193277  0.93986788    -0.06020
N2283       N  0.94973128  0.62639578  0.96783383    -0.58540
N2284       N  0.94319234  0.65304884  0.87913733    -0.04140
N2285       N  0.94965302  0.67685836  0.86875026    -0.59790
N2286       N  0.92076333  0.64339956  0.89404299    -0.06050
N2287       N  0.91143426  0.66036151  0.89392323    -0.58800
N2288       N  0.96622338  0.63196363  0.92489009    -0.03790
N2289       N  0.98765520  0.64321606  0.94211112    -0.59880
Mn2290     Mn  0.96651890  0.63184344  0.87773882     1.18440
C2291       C  0.97710954  0.63959929  0.96866966     0.98420
C2292       C  0.92954404  0.68095893  0.87797651     0.99080
N2293       N  0.92311717  0.53109067  0.86093512    -0.06070
N2294       N  0.93179316  0.51366135  0.86055931    -0.62380
N2295       N  0.87836122  0.54205577  0.82757116    -0.04880
N2296       N  0.85832280  0.52577156  0.80983220    -0.63060
N2297       N  0.90161273  0.55203559  0.81414507    -0.05580
N2298       N  0.89773922  0.54290968  0.78717356    -0.62650
N2299       N  0.89996628  0.52117766  0.87436865    -0.04480
N2300       N  0.89233464  0.99673578  0.88350465    -0.63340
Mn2301     Mn  0.94011737  0.56909615  0.83813526     1.10660
C2302       C  0.91254069  0.99260201  0.87493274     0.99640
C2303       C  0.87072207  0.52698652  0.78463764     0.99720
N2304       N  0.86585282  0.58839277  0.89275375    -0.05590
N2305       N  0.84874486  0.59753400  0.89286973    -0.60960
N2306       N  0.87753548  0.54294630  0.92284790    -0.04910
N2307       N  0.86695091  0.52161192  0.93936363    -0.57690
N2308       N  0.88758616  0.56533246  0.93866032    -0.06220
N2309       N  0.88380202  0.55951124  0.96645297    -0.60530
N2310       N  0.85609283  0.56596338  0.87704663    -0.05200
N2311       N  0.83200751  0.55929122  0.86634255    -0.57710
Mn2312     Mn  0.90426985  0.60496801  0.91719982     1.20190
Mn2313     Mn  0.87731422  0.54269314  0.87536542     1.10090
Cl2314     Cl  0.92196067  0.58722612  0.87697729    -0.85680
C2315       C  0.82795981  0.57936830  0.87612485     0.96650
C2316       C  0.87098030  0.53214877  0.96640462     0.96450
N2317       N  0.56330802  0.88608032  0.68672542    -0.05840
N2318       N  0.55656863  0.88346288  0.71435606    -0.57960
N2319       N  0.56606541  0.85366263  0.62615634    -0.05520
N2320       N  0.55991290  0.82950590  0.61600751    -0.60090
N2321       N  0.58811462  0.86391985  0.64241458    -0.05120
N2322       N  0.59753992  0.84709366  0.64346818    -0.57930
N2323       N  0.54136314  0.87543199  0.67028729    -0.04790
N2324       N  0.51945571  0.86561627  0.68611814    -0.60440
C2325       C  0.52912895  0.87075001  0.71345600     0.96340
C2326       C  0.57993635  0.82595149  0.62671614     0.96120
N2327       N  0.55282282  0.89738116  0.56142875    -0.06020
N2328       N  0.54484630  0.89254008  0.53408048    -0.58540
N2329       N  0.52064969  0.89660252  0.62115917    -0.04140
N2330       N  0.99687551  0.88991102  0.63205845    -0.59790
N2331       N  0.53054528  0.91949834  0.60754794    -0.06050
N2332       N  0.51372383  0.92892971  0.60876183    -0.58800
N2333       N  0.54311998  0.87454322  0.57532168    -0.03790
N2334       N  0.52825432  0.85385583  0.55760366    -0.59880
Mn2335     Mn  0.54246000  0.87436136  0.62301078     1.18440
C2336       C  0.53001776  0.86537046  0.53187201     0.98420
C2337       C  0.99309613  0.91040953  0.62433775     0.99080
N2338       N  0.64282508  0.91917985  0.64359545    -0.06070
N2339       N  0.66012984  0.91025467  0.64429316    -0.62380
N2340       N  0.63016095  0.96457592  0.67300236    -0.04880
N2341       N  0.64141756  0.98620160  0.69010909    -0.63060
N2342       N  0.61991167  0.94247884  0.68820368    -0.05580
N2343       N  0.62424310  0.94872145  0.71612777    -0.62650
N2344       N  0.65253881  0.94122896  0.62826460    -0.04480
N2345       N  0.67670992  0.94782209  0.61845215    -0.63340
Mn2346     Mn  0.60371741  0.90268340  0.66615668     1.10660
C2347       C  0.68096724  0.92816962  0.62837816     0.99640
C2348       C  0.63753587  0.97604230  0.71679514     0.99720
N2349       N  0.58482235  0.97470885  0.60938704    -0.05590
N2350       N  0.57505851  0.99126574  0.61041445    -0.60960
N2351       N  0.63102028  0.96456517  0.57780149    -0.04910
N2352       N  0.65127924  0.98138360  0.56153417    -0.57690
N2353       N  0.60806605  0.95416332  0.56301902    -0.06220
N2354       N  0.61241102  0.96357113  0.53657338    -0.60530
N2355       N  0.60769564  0.98495928  0.62412812    -0.05200
N2356       N  0.61402410  0.50869473  0.63558560    -0.57710
Mn2357     Mn  0.56894247  0.93646572  0.58488831     1.20190
Mn2358     Mn  0.63100306  0.96414771  0.62564387     1.10090
Cl2359     Cl  0.58674994  0.91927768  0.62469108    -0.85680
C2360       C  0.59333829  0.51210005  0.62706243     0.96650
C2361       C  0.63940170  0.98011328  0.53576725     0.96450
N2362       N  0.72814840  0.64268254  0.89624396    -0.05840
N2363       N  0.75448886  0.65951097  0.89595715    -0.57960
N2364       N  0.67130154  0.63106844  0.92695253    -0.05520
N2365       N  0.66087997  0.64190293  0.94422951    -0.60090
N2366       N  0.68370130  0.62100225  0.94193021    -0.05120
N2367       N  0.68208409  0.62501427  0.96993045    -0.57930
N2368       N  0.71530986  0.65234805  0.88129558    -0.04790
N2369       N  0.73266635  0.67603219  0.87070835    -0.60440
C2370       C  0.75692423  0.68003666  0.87987128     0.96340
C2371       C  0.66772295  0.63799567  0.97081120     0.96120
N2372       N  0.61321755  0.58530713  0.86474923    -0.06020
N2373       N  0.58694863  0.57566974  0.86632833    -0.58540
N2374       N  0.66863461  0.63044915  0.83198187    -0.04140
N2375       N  0.67217043  0.65049016  0.81533875    -0.59790
N2376       N  0.65537272  0.60729011  0.81757050    -0.06050
N2377       N  0.64989149  0.61120271  0.79097968    -0.58800
N2378       N  0.62649438  0.60837251  0.87917063    -0.03790
N2379       N  0.60956006  0.61498578  0.89095911    -0.59880
Mn2380     Mn  0.67075692  0.63125810  0.87970912     1.18440
C2381       C  0.58508328  0.59421903  0.88299544     0.98420
C2382       C  0.66083815  0.63816926  0.78973284     0.99080
N2383       N  0.68349199  0.56463533  0.94058877    -0.06070
N2384       N  0.68182533  0.55882479  0.96835480    -0.62380
N2385       N  0.71516777  0.56529839  0.87910543    -0.04880
N2386       N  0.73245720  0.55879659  0.86796804    -0.63060
N2387       N  0.72804505  0.58770685  0.89484008    -0.05580
N2388       N  0.75434149  0.59699180  0.89457473    -0.62650
N2389       N  0.67094684  0.54226589  0.92476257    -0.04480
N2390       N  0.66042087  0.52092401  0.94125584    -0.63340
Mn2391     Mn  0.70633201  0.60424294  0.91930883     1.10660
C2392       C  0.66729941  0.53148137  0.96827476     0.99640
C2393       C  0.75673073  0.57891764  0.87756372     0.99720
N2394       N  0.65577347  0.55183260  0.81605754    -0.05590
N2395       N  0.65076580  0.54300314  0.78897168    -0.60960
N2396       N  0.62636161  0.52071060  0.87608773    -0.04910
N2397       N  0.60929374  0.99638100  0.88535086    -0.57690
N2398       N  0.61328802  0.53082734  0.86254942    -0.06220
N2399       N  0.58708729  0.51371959  0.86224071    -0.60530
N2400       N  0.66898268  0.54177530  0.82961806    -0.05200
N2401       N  0.67298347  0.52577767  0.81188694    -0.57710
Mn2402     Mn  0.63432913  0.56878951  0.83987589     1.20190
Mn2403     Mn  0.67064825  0.54211615  0.87730476     1.10090
Cl2404     Cl  0.67082918  0.58674894  0.87888609    -0.85680
C2405       C  0.66198452  0.52721859  0.78655021     0.96650
C2406       C  0.58500137  0.99259776  0.87674063     0.96450
N2407       N  0.53077035  0.61194728  0.61200490    -0.05840
N2408       N  0.51413527  0.58569986  0.61234851    -0.57960
N2409       N  0.54224487  0.66820625  0.58081344    -0.05520
N2410       N  0.52659252  0.67291785  0.56365399    -0.60090
N2411       N  0.55228665  0.65521639  0.56646541    -0.05120
N2412       N  0.54369696  0.65097073  0.53935077    -0.57930
N2413       N  0.52072334  0.62484331  0.62638684    -0.04790
N2414       N  0.99687298  0.60758122  0.63684710    -0.60440
C2415       C  0.99335104  0.58335646  0.62812035     0.96340
C2416       C  0.52814883  0.66251135  0.53781972     0.96120
N2417       N  0.58829173  0.72628413  0.64617019    -0.06020
N2418       N  0.59781067  0.75257444  0.64602628    -0.58540
N2419       N  0.54249079  0.66923291  0.67563834    -0.04140
N2420       N  0.52113441  0.65888236  0.69229682    -0.59790
N2421       N  0.56490855  0.68173839  0.69127177    -0.06050
N2422       N  0.55916813  0.68020005  0.71907726    -0.58800
N2423       N  0.56576609  0.71352287  0.63071271    -0.03790
N2424       N  0.55944412  0.73085964  0.61982515    -0.59880
Mn2425     Mn  0.54233773  0.66915578  0.62835541     1.18440
C2426       C  0.57975517  0.75504236  0.62933502     0.98420
C2427       C  0.53181413  0.66583523  0.71918677     0.99080
N2428       N  0.60786860  0.65453894  0.56726443    -0.06070
N2429       N  0.61233524  0.64987531  0.54041942    -0.62380
N2430       N  0.60772634  0.62410475  0.62777640    -0.04880
N2431       N  0.61410726  0.60673210  0.63839617    -0.63060
N2432       N  0.58493592  0.61139901  0.61286571    -0.05580
N2433       N  0.57523117  0.58512519  0.61300704    -0.62650
N2434       N  0.63078774  0.66718829  0.58209209    -0.04480
N2435       N  0.65119814  0.67123348  0.56551424    -0.63340
Mn2436     Mn  0.56890709  0.63319089  0.58914838     1.10660
C2437       C  0.63939450  0.66078734  0.53953053     0.99640
C2438       C  0.59345284  0.58260923  0.62924992     0.99720
N2439       N  0.62073293  0.68125832  0.69221735    -0.05590
N2440       N  0.62466730  0.67975317  0.72017502    -0.60960
N2441       N  0.65263846  0.71267086  0.63188912    -0.04910
N2442       N  0.67634183  0.72970398  0.62097323    -0.57690
N2443       N  0.64310666  0.72577650  0.64688141    -0.06220
N2444       N  0.66009548  0.75202437  0.64638226    -0.60530
N2445       N  0.63044903  0.66843202  0.67705835    -0.05200
N2446       N  0.64103344  0.65788258  0.69420284    -0.57710
Mn2447     Mn  0.60453084  0.70429921  0.66999664     1.20190
Mn2448     Mn  0.63104770  0.66831162  0.62970633     1.10090
Cl2449     Cl  0.58677340  0.66887736  0.62920360    -0.85680
C2450       C  0.63725952  0.66503186  0.72090150     0.96650
C2451       C  0.68051572  0.75407474  0.62999840     0.96450
N2452       N  0.89423523  0.91925914  0.60706179    -0.05840
N2453       N  0.92051225  0.92872317  0.60844631    -0.57960
N2454       N  0.83666201  0.87407492  0.57456625    -0.05520
N2455       N  0.83050900  0.85324797  0.55702750    -0.60090
N2456       N  0.84982436  0.89682384  0.56052855    -0.05120
N2457       N  0.85267887  0.89177193  0.53323197    -0.57930
N2458       N  0.88124940  0.89641888  0.62077525    -0.04790
N2459       N  0.89838498  0.88980468  0.63190218    -0.60440
C2460       C  0.92267111  0.91030132  0.62422634     0.96340
C2461       C  0.84010872  0.86457586  0.53124333     0.96120
N2462       N  0.78084048  0.86343283  0.64058590    -0.06020
N2463       N  0.75461929  0.84641669  0.64176123    -0.58540
N2464       N  0.83906495  0.87525980  0.66943017    -0.04140
N2465       N  0.85084844  0.86533118  0.68571794    -0.59790
N2466       N  0.82757910  0.88585635  0.68540700    -0.06050
N2467       N  0.83124200  0.88311275  0.71316899    -0.58800
N2468       N  0.79270751  0.85309394  0.62481439    -0.03790
N2469       N  0.77476434  0.82866985  0.61512399    -0.59880
Mn2470     Mn  0.83711728  0.87403098  0.62219010     1.18440
C2471       C  0.75114610  0.82505866  0.62557859     0.98420
C2472       C  0.84590747  0.87038450  0.71283325     0.99080
N2473       N  0.85158284  0.95378143  0.56123478    -0.06070
N2474       N  0.85723773  0.96353656  0.53494267    -0.62380
N2475       N  0.88224613  0.98455739  0.62270203    -0.04880
N2476       N  0.89944554  0.50835781  0.63424158    -0.63060
N2477       N  0.89509876  0.97447878  0.60833107    -0.05580
N2478       N  0.92141922  0.99128193  0.60970446    -0.62650
N2479       N  0.83891172  0.96415135  0.57563449    -0.04480
N2480       N  0.83601052  0.98129372  0.55922457    -0.63340
Mn2481     Mn  0.87284195  0.93609012  0.58379267     1.10660
C2482       C  0.84705833  0.98027587  0.53377909     0.99640
C2483       C  0.92368219  0.51204295  0.62619144     0.99720
N2484       N  0.82746631  0.94209607  0.68621791    -0.05590
N2485       N  0.82957957  0.94834306  0.71414301    -0.60960
N2486       N  0.79354293  0.94056772  0.62576687    -0.04910
N2487       N  0.77587976  0.94732076  0.61638067    -0.57690
N2488       N  0.78132222  0.91853855  0.64112776    -0.06220
N2489       N  0.75514626  0.90977446  0.64224796    -0.60530
N2490       N  0.83931822  0.96417894  0.67101139    -0.05200
N2491       N  0.84989954  0.98581115  0.68812554    -0.57710
Mn2492     Mn  0.80391658  0.90228328  0.66415161     1.20190
Mn2493     Mn  0.83813277  0.96363736  0.62359488     1.10090
Cl2494     Cl  0.83778320  0.91892758  0.62322360    -0.85680
C2495       C  0.84373235  0.97566556  0.71482698     0.96650
C2496       C  0.75205813  0.92772496  0.62654692     0.96450
C2497       C  0.96895651  0.55827537  0.63142931    -0.12990
C2498       C  0.94840952  0.53686120  0.63066657    -0.14550
C2499       C  0.70505399  0.77898729  0.62542578    -0.12990
C2500       C  0.72606626  0.79998514  0.62390711    -0.14550
C2501       C  0.65448406  0.65073968  0.76671103    -0.12990
C2502       C  0.64673054  0.65843944  0.74665307    -0.14550
C2503       C  0.66074450  0.64730197  0.99657864    -0.12990
C2504       C  0.65246130  0.65482335  0.51649970    -0.14550
C2505       C  0.65222428  0.99930309  0.51315528    -0.12990
C2506       C  0.66028659  0.51503732  0.99355478    -0.14550
C2507       C  0.64765453  0.99276230  0.74247485    -0.12990
C2508       C  0.65570057  0.50846253  0.76277190    -0.14550
C2509       C  0.59300664  0.55763128  0.63228790    -0.12990
C2510       C  0.59284755  0.53658105  0.63152056    -0.14550
C2511       C  0.58028448  0.78009028  0.62534055    -0.12990
C2512       C  0.58026663  0.80110120  0.62444534    -0.14550
C2513       C  0.70591131  0.92796670  0.62519136    -0.12990
C2514       C  0.72701116  0.92791221  0.62453110    -0.14550
C2515       C  0.96851239  0.91061312  0.62846345    -0.12990
C2516       C  0.94750178  0.91055099  0.62846046    -0.14550
C2517       C  0.50943677  0.65688151  0.51439505    -0.12990
C2518       C  0.99360645  0.64930300  0.99437216    -0.14550
C2519       C  0.51554761  0.65909805  0.74456280    -0.12990
C2520       C  0.00017656  0.65121858  0.76450870    -0.14550
C2521       C  0.86173097  0.51562325  0.99171209    -0.12990
C2522       C  0.85393406  0.99973939  0.51123247    -0.14550
C2523       C  0.85821722  0.50807860  0.76088735    -0.12990
C2524       C  0.85053049  0.99239265  0.74054730    -0.14550
C2525       C  0.56031064  0.59409372  0.88726945    -0.12990
C2526       C  0.53936886  0.59421808  0.88692947    -0.14610
C2527       C  0.78175753  0.57916992  0.87360014    -0.12990
C2528       C  0.80289937  0.57927183  0.87310324    -0.14550
C2529       C  0.99595749  0.84347743  0.98777920    -0.12990
C2530       C  0.51197741  0.85161803  0.50775705    -0.14550
C2531       C  0.99588823  0.85521285  0.75799009    -0.12990
C2532       C  0.51171137  0.86271211  0.73825752    -0.14550
C2533       C  0.91138217  0.94635761  0.87813766    -0.12990
C2534       C  0.91186493  0.96750355  0.87718808    -0.14550
C2535       C  0.92836493  0.72603159  0.87009685    -0.12990
C2536       C  0.92863516  0.70528514  0.87335272    -0.14550
C2537       C  0.56024033  0.96780242  0.87908039    -0.12990
C2538       C  0.53916340  0.94699678  0.87964545    -0.14550
C2539       C  0.78217876  0.70417516  0.87489975    -0.12990
C2540       C  0.80305840  0.72493075  0.87123572    -0.14550
C2541       C  0.85171352  0.84224326  0.98751749    -0.12990
C2542       C  0.84402287  0.85056473  0.50732080    -0.14550
C2543       C  0.85471921  0.86215114  0.73796782    -0.12990
C2544       C  0.86266546  0.85450802  0.75796911    -0.14550
loop_ 
_geom_bond_atom_site_label_1 
_geom_bond_atom_site_label_2 
_geom_bond_distance 
_geom_bond_site_symmetry_2 
_ccdc_geom_bond_type 
N1            N2   1.317       .  A
N1            N7   1.315       .  A
N1          Mn30   2.186       .  S
N2            C9   1.347       .  A
N3            N5   1.318       .  A
N3            N4   1.323       .  A
N3          Mn19   2.206       .  S
N4           C10   1.351       .  A
N5            N6   1.320       .  A
N5          Mn30   2.199       .  S
N6           C10   1.349       .  A
N7            N8   1.319       .  A
N7          Mn19   2.190       .  S
N8            C9   1.350       .  A
C9          C307   1.424       .  S
C10         C315   1.438       .  S
N11          N17   1.318       .  A
N11          N12   1.322       .  A
N11         Mn41   2.218       .  S
N12          C20   1.352       .  A
N13          N14   1.319       .  A
N13          N15   1.317       .  A
N13         Mn19   2.192       .  S
N14          C21   1.346       .  A
N15          N16   1.326       .  A
N15         Mn41   2.229       .  S
N16          C21   1.357       .  A
N17          N18   1.320       .  A
N17         Mn19   2.198       .  S
N18          C20   1.350       .  A
Mn19        Cl43   2.547       .  S
C20         C314   1.437       .  S
C21         C318   1.443       .  S
N22          N23   1.320       .  A
N22          N28   1.318       .  A
N22         Mn30   2.200       .  S
N23          C31   1.350       .  A
N24          N26   1.315       .  A
N24        N1297   1.319       .  A
N24         Mn42   2.189       .  S
N25        N1296   1.319   1_455  A
N25          C32   1.349       .  A
N26          N27   1.318       .  A
N26         Mn30   2.187       .  S
N27        C1304   1.348       .  A
N28          N29   1.323       .  A
N28         Mn42   2.209       .  S
N29          C31   1.352       .  A
Mn30        Cl43   2.541       .  S
C31         C303   1.440       .  S
C32        N1299   1.348   1_455  A
C32         C312   1.424       .  S
N33          N34   1.327       .  A
N33          N39   1.317       .  A
N33         Mn41   2.233       .  S
N34          C44   1.358       .  A
N35          N36   1.321       .  A
N35          N37   1.318       .  A
N35         Mn42   2.201       .  S
N36          C45   1.351       .  A
N37          N38   1.322       .  A
N37         Mn41   2.217       .  S
N38          C45   1.352       .  A
N39          N40   1.319       .  A
N39         Mn42   2.195       .  S
N40          C44   1.346       .  A
Mn41        Cl43   2.553       .  S
Mn42        Cl43   2.546       .  S
C44         C305   1.446       .  S
C45         C309   1.439       .  S
N46          N47   1.319       .  A
N46          N52   1.317       .  A
N46         Mn75   2.193       .  S
N47          C54   1.347       .  A
N48          N50   1.315       .  A
N48        N1321   1.320       .  A
N48         Mn64   2.192       .  S
N49        N1320   1.320   1_455  A
N49          C55   1.350       .  A
N50          N51   1.318       .  A
N50         Mn75   2.190       .  S
N51        C1327   1.349       .  A
N52          N53   1.322       .  A
N52         Mn64   2.206       .  S
N53          C54   1.351       .  A
C54         C294   1.435       .  S
C55        N1323   1.349   1_455  A
C55         C300   1.427       .  S
N56          N62   1.316       .  A
N56          N57   1.324       .  A
N56         Mn86   2.215       .  S
N57          C65   1.355       .  A
N58          N59   1.322       .  A
N58          N60   1.318       .  A
N58         Mn64   2.207       .  S
N59          C66   1.352       .  A
N60          N61   1.321       .  A
N60         Mn86   2.213       .  S
N61          C66   1.351       .  A
N62          N63   1.317       .  A
N62         Mn64   2.183       .  S
N63          C65   1.345       .  A
Mn64        Cl88   2.550       .  S
C65         C292   1.434       .  S
C66         C310   1.439       .  S
N67          N68   1.317       .  A
N67          N73   1.315       .  A
N67         Mn75   2.184       .  S
N68         C712   1.347   1_545  A
N69          N71   1.319       .  A
N69          N70   1.323       .  A
N69         Mn87   2.214       .  S
N70          C77   1.352       .  A
N71          N72   1.319       .  A
N71         Mn75   2.195       .  S
N72          C77   1.347       .  A
N73         N710   1.319   1_545  A
N73         Mn87   2.188       .  S
N74         N709   1.319       .  A
N74          C76   1.349       .  A
Mn75        Cl88   2.533       .  S
C76         N704   1.347       .  A
C76         C308   1.424       .  S
C77         C297   1.438       .  S
N78          N79   1.319       .  A
N78          N84   1.317       .  A
N78         Mn86   2.204       .  S
N79          C89   1.349       .  A
N80          N81   1.319       .  A
N80          N82   1.317       .  A
N80         Mn87   2.198       .  S
N81          C90   1.347       .  A
N82          N83   1.326       .  A
N82         Mn86   2.229       .  S
N83          C90   1.357       .  A
N84          N85   1.322       .  A
N84         Mn87   2.205       .  S
N85          C89   1.352       .  A
Mn86        Cl88   2.549       .  S
Mn87        Cl88   2.550       .  S
C89         C302   1.435       .  S
C90         C295   1.446       .  S
N91          N92   1.327       .  A
N91          N97   1.317       .  A
N91        Mn120   2.236       .  S
N92          C99   1.359       .  A
N93          N95   1.317       .  A
N93          N94   1.321       .  A
N93        Mn109   2.202       .  S
N94         C100   1.352       .  A
N95          N96   1.319       .  A
N95        Mn120   2.203       .  S
N96         C100   1.349       .  A
N97          N98   1.319       .  A
N97        Mn109   2.191       .  S
N98          C99   1.346       .  A
C99         C306   1.446       .  S
C100        C286   1.434       .  S
N101        N107   1.319       .  A
N101        N102   1.320       .  A
N101       Mn131   2.209       .  S
N102        C110   1.350       .  A
N103        N105   1.314       .  A
N103       N1376   1.319   1_455  A
N103       Mn109   2.184       .  S
N104       N1375   1.319       .  A
N104        C111   1.349       .  A
N105        N106   1.318       .  A
N105       Mn131   2.187       .  S
N106       C1383   1.349   1_455  A
N107        N108   1.323       .  A
N107       Mn109   2.208       .  S
N108        C110   1.351       .  A
Mn109      Cl133   2.551       .  S
C110        C304   1.441       .  S
C111       N1378   1.349       .  A
C111        C289   1.424       .  S
N112        N113   1.321       .  A
N112        N118   1.319       .  A
N112       Mn120   2.219       .  S
N113        C121   1.351       .  A
N114        N116   1.316       .  A
N114        N115   1.318       .  A
N114       Mn132   2.193       .  S
N115        C122   1.346       .  A
N116        N117   1.324       .  A
N116       Mn120   2.211       .  S
N117        C122   1.354       .  A
N118        N119   1.322       .  A
N118       Mn132   2.207       .  S
N119        C121   1.352       .  A
Mn120      Cl133   2.549       .  S
C121        C287   1.439       .  S
C122        C281   1.437       .  S
N123        N124   1.319       .  A
N123        N129   1.315       .  A
N123       Mn131   2.195       .  S
N124        C770   1.350       .  A
N125        N126   1.324       .  A
N125        N127   1.319       .  A
N125       Mn132   2.215       .  S
N126        C135   1.352       .  A
N127        N128   1.320       .  A
N127       Mn131   2.200       .  S
N128        C135   1.348       .  A
N129        N766   1.319       .  A
N129       Mn132   2.188       .  S
N130        N765   1.319   1_545  A
N130        C134   1.349       .  A
Mn131      Cl133   2.539       .  S
Mn132      Cl133   2.548       .  S
C134        N760   1.350   1_545  A
C134        C284   1.427       .  S
C135        C279   1.443       .  S
N136        N137   1.321       .  A
N136        N142   1.318       .  A
N136       Mn165   2.211       .  S
N137        C144   1.350       .  A
N138        N140   1.316       .  A
N138        N139   1.317       .  A
N138       Mn154   2.188       .  S
N139        C145   1.345       .  A
N140        N141   1.324       .  A
N140       Mn165   2.215       .  S
N141        C145   1.355       .  A
N142        N143   1.321       .  A
N142       Mn154   2.206       .  S
N143        C144   1.352       .  A
C144        C313   1.437       .  S
C145        C277   1.435       .  S
N146        N152   1.314       .  A
N146        N147   1.318       .  A
N146       Mn176   2.189       .  S
N147        C155   1.349       .  A
N148        N149   1.324       .  A
N148        N150   1.318       .  A
N148       Mn154   2.211       .  S
N149        C156   1.352       .  A
N150        N151   1.319       .  A
N150       Mn176   2.194       .  S
N151        C156   1.347       .  A
N152        N153   1.320       .  A
N152       Mn154   2.191       .  S
N153        C155   1.350       .  A
Mn154      Cl178   2.550       .  S
C155        C299   1.427       .  S
C156        C275   1.439       .  S
N157        N158   1.325       .  A
N157        N163   1.317       .  A
N157       Mn165   2.224       .  S
N158        C166   1.356       .  A
N159        N161   1.317       .  A
N159        N160   1.321       .  A
N159       Mn177   2.204       .  S
N160        C167   1.351       .  A
N161        N162   1.320       .  A
N161       Mn165   2.206       .  S
N162        C167   1.350       .  A
N163        N164   1.319       .  A
N163       Mn177   2.197       .  S
N164        C166   1.347       .  A
Mn165      Cl178   2.547       .  S
C166        C280   1.443       .  S
C167        C301   1.436       .  S
N168        N169   1.319       .  A
N168        N174   1.318       .  A
N168       Mn176   2.196       .  S
N169        C179   1.348       .  A
N170        N172   1.314       .  A
N170        N807   1.320   1_545  A
N170       Mn177   2.192       .  S
N171        N806   1.320       .  A
N171        C180   1.350       .  A
N172        N173   1.317       .  A
N172       Mn176   2.179       .  S
N173        C816   1.346   1_545  A
N174        N175   1.323       .  A
N174       Mn177   2.209       .  S
N175        C179   1.351       .  A
Mn176      Cl178   2.535       .  S
Mn177      Cl178   2.550       .  S
C179        C282   1.436       .  S
C180        N809   1.346       .  A
C180        C311   1.424       .  S
N181        N182   1.317       .  A
N181        N187   1.314       .  A
N181       Mn210   2.183       .  S
N182       C1461   1.347   1_455  A
N183        N185   1.318       .  A
N183        N184   1.321       .  A
N183       Mn199   2.201       .  S
N184        C190   1.350       .  A
N185        N186   1.319       .  A
N185       Mn210   2.198       .  S
N186        C190   1.349       .  A
N187       N1460   1.321   1_455  A
N187       Mn199   2.197       .  S
N188       N1459   1.321       .  A
N188        C189   1.352       .  A
C189       N1454   1.347       .  A
C189        C271   1.427       .  S
C190        C291   1.434       .  S
N191        N197   1.317       .  A
N191        N192   1.320       .  A
N191       Mn221   2.207       .  S
N192        C200   1.350       .  A
N193        N194   1.318       .  A
N193        N195   1.317       .  A
N193       Mn199   2.189       .  S
N194        C201   1.347       .  A
N195        N196   1.323       .  A
N195       Mn221   2.215       .  S
N196        C201   1.354       .  A
N197        N198   1.321       .  A
N197       Mn199   2.201       .  S
N198        C200   1.351       .  A
Mn199      Cl223   2.547       .  S
C200        C285   1.434       .  S
C201        C293   1.435       .  S
N202        N203   1.319       .  A
N202        N208   1.318       .  A
N202       Mn210   2.196       .  S
N203        C211   1.348       .  A
N204        N206   1.315       .  A
N204        N205   1.320       .  A
N204       Mn222   2.192       .  S
N205        C212   1.351       .  A
N206        N207   1.318       .  A
N206       Mn210   2.187       .  S
N207        C212   1.348       .  A
N208        N209   1.322       .  A
N208       Mn222   2.204       .  S
N209        C211   1.350       .  A
Mn210      Cl223   2.533       .  S
C211        C278   1.435       .  S
C212        C283   1.427       .  S
N213        N214   1.324       .  A
N213        N219   1.316       .  A
N213       Mn221   2.217       .  S
N214        C224   1.355       .  A
N215        N216   1.321       .  A
N215        N217   1.317       .  A
N215       Mn222   2.200       .  S
N216        C225   1.350       .  A
N217        N218   1.320       .  A
N217       Mn221   2.208       .  S
N218        C225   1.351       .  A
N219        N220   1.318       .  A
N219       Mn222   2.193       .  S
N220        C224   1.347       .  A
Mn221      Cl223   2.549       .  S
Mn222      Cl223   2.546       .  S
C224        C276   1.439       .  S
C225        C273   1.435       .  S
N226        N227   1.318       .  A
N226        N232   1.314       .  A
N226       Mn255   2.188       .  S
N227        C234   1.348       .  A
N228        N230   1.319       .  A
N228        N229   1.322       .  A
N228       Mn244   2.205       .  S
N229        C235   1.351       .  A
N230        N231   1.320       .  A
N230       Mn255   2.211       .  S
N231        C235   1.351       .  A
N232        N233   1.319       .  A
N232       Mn244   2.186       .  S
N233        C234   1.349       .  A
C234        C290   1.424       .  S
C235        C316   1.439       .  S
N236        N242   1.317       .  A
N236        N237   1.319       .  A
N236       Mn266   2.201       .  S
N237        C245   1.349       .  A
N238        N239   1.318       .  A
N238        N240   1.316       .  A
N238       Mn244   2.187       .  S
N239        C246   1.346       .  A
N240        N241   1.326       .  A
N240       Mn266   2.230       .  S
N241        C246   1.358       .  A
N242        N243   1.322       .  A
N242       Mn244   2.204       .  S
N243        C245   1.352       .  A
Mn244      Cl268   2.551       .  S
C245        C274   1.435       .  S
C246        C317   1.443       .  S
N247        N248   1.321       .  A
N247        N253   1.320       .  A
N247       Mn255   2.202       .  S
N248        C256   1.349       .  A
N249        N251   1.315       .  A
N249        N886   1.318       .  A
N249       Mn267   2.185       .  S
N250        N885   1.318   1_545  A
N250        C257   1.348       .  A
N251        N252   1.320       .  A
N251       Mn255   2.200       .  S
N252        C893   1.351       .  A
N253        N254   1.325       .  A
N253       Mn267   2.221       .  S
N254        C256   1.353       .  A
Mn255      Cl268   2.538       .  S
C256        C296   1.447       .  S
C257        N888   1.351   1_545  A
C257        C272   1.427       .  S
N258        N259   1.324       .  A
N258        N264   1.316       .  A
N258       Mn266   2.211       .  S
N259        C269   1.354       .  A
N260        N261   1.323       .  A
N260        N262   1.319       .  A
N260       Mn267   2.211       .  S
N261        C270   1.353       .  A
N262        N263   1.320       .  A
N262       Mn266   2.212       .  S
N263        C270   1.350       .  A
N264        N265   1.319       .  A
N264       Mn267   2.195       .  S
N265        C269   1.347       .  A
Mn266      Cl268   2.549       .  S
Mn267      Cl268   2.549       .  S
C269        C298   1.438       .  S
C270        C288   1.439       .  S
C271        C272   1.201       .  T
C273        C274   1.205       .  T
C275        C276   1.208       .  T
C277        C596   1.206       .  T
C278        C595   1.206   1_554  T
C279       C1234   1.210   1_554  T
C280       C1233   1.210   1_545  T
C281        C918   1.206       .  T
C282        C917   1.206   1_545  T
C283        C284   1.200       .  T
C285        C286   1.205       .  T
C287        C288   1.208       .  T
C289        C290   1.199       .  T
C291       C1882   1.205   1_454  T
C292       C1881   1.205       .  T
C293       C1566   1.206       .  T
C294       C1565   1.206       .  T
C295       C1250   1.212   1_545  T
C296       C1249   1.212   1_554  T
C297        C934   1.207   1_545  T
C298        C933   1.207       .  T
C299        C300   1.200       .  T
C301        C302   1.205       .  T
C303       C1894   1.209       .  T
C304       C1893   1.209   1_454  T
C305       C1578   1.212       .  T
C306       C1577   1.212   1_455  T
C307        C308   1.199       .  T
C309        C310   1.208       .  T
C311        C312   1.199       .  T
C313        C314   1.206       .  T
C315        C634   1.208       .  T
C316        C633   1.208   1_554  T
C317        C318   1.210       .  T
N319        N320   1.317       .  A
N319        N325   1.315       .  A
N319       Mn348   2.186       .  S
N320        C327   1.347       .  A
N321        N323   1.318       .  A
N321        N322   1.323       .  A
N321       Mn337   2.206       .  S
N322        C328   1.351       .  A
N323        N324   1.320       .  A
N323       Mn348   2.199       .  S
N324        C328   1.349       .  A
N325        N326   1.319       .  A
N325       Mn337   2.190       .  S
N326        C327   1.350       .  A
C327        C625   1.424       .  S
C328        C633   1.438       .  S
N329        N335   1.318       .  A
N329        N330   1.322       .  A
N329       Mn359   2.218       .  S
N330        C338   1.352       .  A
N331        N332   1.319       .  A
N331        N333   1.317       .  A
N331       Mn337   2.192       .  S
N332        C339   1.346       .  A
N333        N334   1.326       .  A
N333       Mn359   2.229       .  S
N334        C339   1.357       .  A
N335        N336   1.320       .  A
N335       Mn337   2.198       .  S
N336        C338   1.350       .  A
Mn337      Cl361   2.547       .  S
C338        C632   1.437       .  S
C339        C636   1.443       .  S
N340        N341   1.320       .  A
N340        N346   1.318       .  A
N340       Mn348   2.200       .  S
N341        C349   1.350       .  A
N342        N344   1.315       .  A
N342       N1615   1.319       .  A
N342       Mn360   2.189       .  S
N343       N1614   1.319   1_455  A
N343        C350   1.349       .  A
N344        N345   1.318       .  A
N344       Mn348   2.187       .  S
N345       C1622   1.348       .  A
N346        N347   1.323       .  A
N346       Mn360   2.209       .  S
N347        C349   1.352       .  A
Mn348      Cl361   2.541       .  S
C349        C621   1.440       .  S
C350       N1617   1.348   1_455  A
C350        C630   1.424       .  S
N351        N352   1.327       .  A
N351        N357   1.317       .  A
N351       Mn359   2.233       .  S
N352        C362   1.358       .  A
N353        N354   1.321       .  A
N353        N355   1.318       .  A
N353       Mn360   2.201       .  S
N354        C363   1.351       .  A
N355        N356   1.322       .  A
N355       Mn359   2.217       .  S
N356        C363   1.352       .  A
N357        N358   1.319       .  A
N357       Mn360   2.195       .  S
N358        C362   1.346       .  A
Mn359      Cl361   2.553       .  S
Mn360      Cl361   2.546       .  S
C362        C623   1.446       .  S
C363        C627   1.439       .  S
N364        N365   1.319       .  A
N364        N370   1.317       .  A
N364       Mn393   2.193       .  S
N365        C372   1.347       .  A
N366        N368   1.315       .  A
N366       N1639   1.320       .  A
N366       Mn382   2.192       .  S
N367       N1638   1.320   1_455  A
N367        C373   1.350       .  A
N368        N369   1.318       .  A
N368       Mn393   2.190       .  S
N369       C1645   1.349       .  A
N370        N371   1.322       .  A
N370       Mn382   2.206       .  S
N371        C372   1.351       .  A
C372        C612   1.435       .  S
C373       N1641   1.349   1_455  A
C373        C618   1.427       .  S
N374        N380   1.316       .  A
N374        N375   1.324       .  A
N374       Mn404   2.215       .  S
N375        C383   1.355       .  A
N376        N377   1.322       .  A
N376        N378   1.318       .  A
N376       Mn382   2.207       .  S
N377        C384   1.352       .  A
N378        N379   1.321       .  A
N378       Mn404   2.213       .  S
N379        C384   1.351       .  A
N380        N381   1.317       .  A
N380       Mn382   2.183       .  S
N381        C383   1.345       .  A
Mn382      Cl406   2.550       .  S
C383        C610   1.434       .  S
C384        C628   1.439       .  S
N385        N386   1.317       .  A
N385        N391   1.315       .  A
N385       Mn393   2.184       .  S
N386       C1030   1.347   1_545  A
N387        N389   1.319       .  A
N387        N388   1.323       .  A
N387       Mn405   2.214       .  S
N388        C395   1.352       .  A
N389        N390   1.319       .  A
N389       Mn393   2.195       .  S
N390        C395   1.347       .  A
N391       N1028   1.319   1_545  A
N391       Mn405   2.188       .  S
N392       N1027   1.319       .  A
N392        C394   1.349       .  A
Mn393      Cl406   2.533       .  S
C394       N1022   1.347       .  A
C394        C626   1.424       .  S
C395        C615   1.438       .  S
N396        N397   1.319       .  A
N396        N402   1.317       .  A
N396       Mn404   2.204       .  S
N397        C407   1.349       .  A
N398        N399   1.319       .  A
N398        N400   1.317       .  A
N398       Mn405   2.198       .  S
N399        C408   1.347       .  A
N400        N401   1.326       .  A
N400       Mn404   2.229       .  S
N401        C408   1.357       .  A
N402        N403   1.322       .  A
N402       Mn405   2.205       .  S
N403        C407   1.352       .  A
Mn404      Cl406   2.549       .  S
Mn405      Cl406   2.550       .  S
C407        C620   1.435       .  S
C408        C613   1.446       .  S
N409        N410   1.327       .  A
N409        N415   1.317       .  A
N409       Mn438   2.236       .  S
N410        C417   1.359       .  A
N411        N413   1.317       .  A
N411        N412   1.321       .  A
N411       Mn427   2.202       .  S
N412        C418   1.352       .  A
N413        N414   1.319       .  A
N413       Mn438   2.203       .  S
N414        C418   1.349       .  A
N415        N416   1.319       .  A
N415       Mn427   2.191       .  S
N416        C417   1.346       .  A
C417        C624   1.446       .  S
C418        C604   1.434       .  S
N419        N425   1.319       .  A
N419        N420   1.320       .  A
N419       Mn449   2.209       .  S
N420        C428   1.350       .  A
N421       N1694   1.319   1_455  A
N421        N423   1.314       .  A
N421       Mn427   2.184       .  S
N422       N1693   1.319       .  A
N422        C429   1.349       .  A
N423        N424   1.318       .  A
N423       Mn449   2.187       .  S
N424       C1701   1.349   1_455  A
N425        N426   1.323       .  A
N425       Mn427   2.208       .  S
N426        C428   1.351       .  A
Mn427      Cl451   2.551       .  S
C428        C622   1.441       .  S
C429       N1696   1.349       .  A
C429        C607   1.424       .  S
N430        N431   1.321       .  A
N430        N436   1.319       .  A
N430       Mn438   2.219       .  S
N431        C439   1.351       .  A
N432        N434   1.316       .  A
N432        N433   1.318       .  A
N432       Mn450   2.193       .  S
N433        C440   1.346       .  A
N434        N435   1.324       .  A
N434       Mn438   2.211       .  S
N435        C440   1.354       .  A
N436        N437   1.322       .  A
N436       Mn450   2.207       .  S
N437        C439   1.352       .  A
Mn438      Cl451   2.549       .  S
C439        C605   1.439       .  S
C440        C599   1.437       .  S
N441        N442   1.319       .  A
N441        N447   1.315       .  A
N441       Mn449   2.195       .  S
N442       C1088   1.350       .  A
N443        N444   1.324       .  A
N443        N445   1.319       .  A
N443       Mn450   2.215       .  S
N444        C453   1.352       .  A
N445        N446   1.320       .  A
N445       Mn449   2.200       .  S
N446        C453   1.348       .  A
N447       N1084   1.319       .  A
N447       Mn450   2.188       .  S
N448       N1083   1.319   1_545  A
N448        C452   1.349       .  A
Mn449      Cl451   2.539       .  S
Mn450      Cl451   2.548       .  S
C452       N1078   1.350   1_545  A
C452        C602   1.427       .  S
C453        C597   1.443       .  S
N454        N455   1.321       .  A
N454        N460   1.318       .  A
N454       Mn483   2.211       .  S
N455        C462   1.350       .  A
N456        N458   1.316       .  A
N456        N457   1.317       .  A
N456       Mn472   2.188       .  S
N457        C463   1.345       .  A
N458        N459   1.324       .  A
N458       Mn483   2.215       .  S
N459        C463   1.355       .  A
N460        N461   1.321       .  A
N460       Mn472   2.206       .  S
N461        C462   1.352       .  A
C462        C631   1.437       .  S
C463        C595   1.435       .  S
N464        N470   1.314       .  A
N464        N465   1.318       .  A
N464       Mn494   2.189       .  S
N465        C473   1.349       .  A
N466        N467   1.324       .  A
N466        N468   1.318       .  A
N466       Mn472   2.211       .  S
N467        C474   1.352       .  A
N468        N469   1.319       .  A
N468       Mn494   2.194       .  S
N469        C474   1.347       .  A
N470        N471   1.320       .  A
N470       Mn472   2.191       .  S
N471        C473   1.350       .  A
Mn472      Cl496   2.550       .  S
C473        C617   1.427       .  S
C474        C593   1.439       .  S
N475        N476   1.325       .  A
N475        N481   1.317       .  A
N475       Mn483   2.224       .  S
N476        C484   1.356       .  A
N477        N479   1.317       .  A
N477        N478   1.321       .  A
N477       Mn495   2.204       .  S
N478        C485   1.351       .  A
N479        N480   1.320       .  A
N479       Mn483   2.206       .  S
N480        C485   1.350       .  A
N481        N482   1.319       .  A
N481       Mn495   2.197       .  S
N482        C484   1.347       .  A
Mn483      Cl496   2.547       .  S
C484        C598   1.443       .  S
C485        C619   1.436       .  S
N486        N487   1.319       .  A
N486        N492   1.318       .  A
N486       Mn494   2.196       .  S
N487        C497   1.348       .  A
N488       N1125   1.320   1_545  A
N488        N490   1.314       .  A
N488       Mn495   2.192       .  S
N489       N1124   1.320       .  A
N489        C498   1.350       .  A
N490        N491   1.317       .  A
N490       Mn494   2.179       .  S
N491       C1134   1.346   1_545  A
N492        N493   1.323       .  A
N492       Mn495   2.209       .  S
N493        C497   1.351       .  A
Mn494      Cl496   2.535       .  S
Mn495      Cl496   2.550       .  S
C497        C600   1.436       .  S
C498       N1127   1.346       .  A
C498        C629   1.424       .  S
N499        N500   1.317       .  A
N499        N505   1.314       .  A
N499       Mn528   2.183       .  S
N500       C1779   1.347   1_455  A
N501        N503   1.318       .  A
N501        N502   1.321       .  A
N501       Mn517   2.201       .  S
N502        C508   1.350       .  A
N503        N504   1.319       .  A
N503       Mn528   2.198       .  S
N504        C508   1.349       .  A
N505       N1778   1.321   1_455  A
N505       Mn517   2.197       .  S
N506       N1777   1.321       .  A
N506        C507   1.352       .  A
C507       N1772   1.347       .  A
C507        C589   1.427       .  S
C508        C609   1.434       .  S
N509        N515   1.317       .  A
N509        N510   1.320       .  A
N509       Mn539   2.207       .  S
N510        C518   1.350       .  A
N511        N512   1.318       .  A
N511        N513   1.317       .  A
N511       Mn517   2.189       .  S
N512        C519   1.347       .  A
N513        N514   1.323       .  A
N513       Mn539   2.215       .  S
N514        C519   1.354       .  A
N515        N516   1.321       .  A
N515       Mn517   2.201       .  S
N516        C518   1.351       .  A
Mn517      Cl541   2.547       .  S
C518        C603   1.434       .  S
C519        C611   1.435       .  S
N520        N521   1.319       .  A
N520        N526   1.318       .  A
N520       Mn528   2.196       .  S
N521        C529   1.348       .  A
N522        N524   1.315       .  A
N522        N523   1.320       .  A
N522       Mn540   2.192       .  S
N523        C530   1.351       .  A
N524        N525   1.318       .  A
N524       Mn528   2.187       .  S
N525        C530   1.348       .  A
N526        N527   1.322       .  A
N526       Mn540   2.204       .  S
N527        C529   1.350       .  A
Mn528      Cl541   2.533       .  S
C529        C596   1.435       .  S
C530        C601   1.427       .  S
N531        N532   1.324       .  A
N531        N537   1.316       .  A
N531       Mn539   2.217       .  S
N532        C542   1.355       .  A
N533        N534   1.321       .  A
N533        N535   1.317       .  A
N533       Mn540   2.200       .  S
N534        C543   1.350       .  A
N535        N536   1.320       .  A
N535       Mn539   2.208       .  S
N536        C543   1.351       .  A
N537        N538   1.318       .  A
N537       Mn540   2.193       .  S
N538        C542   1.347       .  A
Mn539      Cl541   2.549       .  S
Mn540      Cl541   2.546       .  S
C542        C594   1.439       .  S
C543        C591   1.435       .  S
N544        N545   1.318       .  A
N544        N550   1.314       .  A
N544       Mn573   2.188       .  S
N545        C552   1.348       .  A
N546        N548   1.319       .  A
N546        N547   1.322       .  A
N546       Mn562   2.205       .  S
N547        C553   1.351       .  A
N548        N549   1.320       .  A
N548       Mn573   2.211       .  S
N549        C553   1.351       .  A
N550        N551   1.319       .  A
N550       Mn562   2.186       .  S
N551        C552   1.349       .  A
C552        C608   1.424       .  S
C553        C634   1.439       .  S
N554        N560   1.317       .  A
N554        N555   1.319       .  A
N554       Mn584   2.201       .  S
N555        C563   1.349       .  A
N556        N557   1.318       .  A
N556        N558   1.316       .  A
N556       Mn562   2.187       .  S
N557        C564   1.346       .  A
N558        N559   1.326       .  A
N558       Mn584   2.230       .  S
N559        C564   1.358       .  A
N560        N561   1.322       .  A
N560       Mn562   2.204       .  S
N561        C563   1.352       .  A
Mn562      Cl586   2.551       .  S
C563        C592   1.435       .  S
C564        C635   1.443       .  S
N565        N566   1.321       .  A
N565        N571   1.320       .  A
N565       Mn573   2.202       .  S
N566        C574   1.349       .  A
N567        N569   1.315       .  A
N567       N1204   1.318       .  A
N567       Mn585   2.185       .  S
N568       N1203   1.318   1_545  A
N568        C575   1.348       .  A
N569        N570   1.320       .  A
N569       Mn573   2.200       .  S
N570       C1211   1.351       .  A
N571        N572   1.325       .  A
N571       Mn585   2.221       .  S
N572        C574   1.353       .  A
Mn573      Cl586   2.538       .  S
C574        C614   1.447       .  S
C575       N1206   1.351   1_545  A
C575        C590   1.427       .  S
N576        N577   1.324       .  A
N576        N582   1.316       .  A
N576       Mn584   2.211       .  S
N577        C587   1.354       .  A
N578        N579   1.323       .  A
N578        N580   1.319       .  A
N578       Mn585   2.211       .  S
N579        C588   1.353       .  A
N580        N581   1.320       .  A
N580       Mn584   2.212       .  S
N581        C588   1.350       .  A
N582        N583   1.319       .  A
N582       Mn585   2.195       .  S
N583        C587   1.347       .  A
Mn584      Cl586   2.549       .  S
Mn585      Cl586   2.549       .  S
C587        C616   1.438       .  S
C588        C606   1.439       .  S
C589        C590   1.201       .  T
C591        C592   1.205       .  T
C593        C594   1.208       .  T
C597        C916   1.210       .  T
C598        C915   1.210   1_546  T
C599       C1236   1.206       .  T
C600       C1235   1.206   1_545  T
C601        C602   1.200       .  T
C603        C604   1.205       .  T
C605        C606   1.208       .  T
C607        C608   1.199       .  T
C609       C1564   1.205   1_455  T
C610       C1563   1.205   1_556  T
C611       C1884   1.206       .  T
C612       C1883   1.206       .  T
C613        C932   1.212   1_546  T
C614        C931   1.212       .  T
C615       C1252   1.207   1_545  T
C616       C1251   1.207       .  T
C617        C618   1.200       .  T
C619        C620   1.205       .  T
C621       C1576   1.209   1_556  T
C622       C1575   1.209   1_455  T
C623       C1896   1.212       .  T
C624       C1895   1.212   1_455  T
C625        C626   1.199       .  T
C627        C628   1.208       .  T
C629        C630   1.199       .  T
C631        C632   1.206       .  T
C635        C636   1.210       .  T
N637        N638   1.317       .  A
N637        N643   1.315       .  A
N637       Mn666   2.186       .  S
N638        C645   1.347       .  A
N639        N641   1.318       .  A
N639        N640   1.323       .  A
N639       Mn655   2.206       .  S
N640        C646   1.351       .  A
N641        N642   1.320       .  A
N641       Mn666   2.199       .  S
N642        C646   1.349       .  A
N643        N644   1.319       .  A
N643       Mn655   2.190       .  S
N644        C645   1.350       .  A
C645        C943   1.424       .  S
C646        C951   1.438       .  S
N647        N653   1.318       .  A
N647        N648   1.322       .  A
N647       Mn677   2.218       .  S
N648        C656   1.352       .  A
N649        N650   1.319       .  A
N649        N651   1.317       .  A
N649       Mn655   2.192       .  S
N650        C657   1.346       .  A
N651        N652   1.326       .  A
N651       Mn677   2.229       .  S
N652        C657   1.357       .  A
N653        N654   1.320       .  A
N653       Mn655   2.198       .  S
N654        C656   1.350       .  A
Mn655      Cl679   2.547       .  S
C656        C950   1.437       .  S
C657        C954   1.443       .  S
N658        N659   1.320       .  A
N658        N664   1.318       .  A
N658       Mn666   2.200       .  S
N659        C667   1.350       .  A
N660        N662   1.315       .  A
N660       N1933   1.319       .  A
N660       Mn678   2.189       .  S
N661       N1932   1.319   1_455  A
N661        C668   1.349       .  A
N662        N663   1.318       .  A
N662       Mn666   2.187       .  S
N663       C1940   1.348       .  A
N664        N665   1.323       .  A
N664       Mn678   2.209       .  S
N665        C667   1.352       .  A
Mn666      Cl679   2.541       .  S
C667        C939   1.440       .  S
C668       N1935   1.348   1_455  A
C668        C948   1.424       .  S
N669        N670   1.327       .  A
N669        N675   1.317       .  A
N669       Mn677   2.233       .  S
N670        C680   1.358       .  A
N671        N672   1.321       .  A
N671        N673   1.318       .  A
N671       Mn678   2.201       .  S
N672        C681   1.351       .  A
N673        N674   1.322       .  A
N673       Mn677   2.217       .  S
N674        C681   1.352       .  A
N675        N676   1.319       .  A
N675       Mn678   2.195       .  S
N676        C680   1.346       .  A
Mn677      Cl679   2.553       .  S
Mn678      Cl679   2.546       .  S
C680        C941   1.446       .  S
C681        C945   1.439       .  S
N682        N683   1.319       .  A
N682        N688   1.317       .  A
N682       Mn711   2.193       .  S
N683        C690   1.347       .  A
N684        N686   1.315       .  A
N684       N1957   1.320       .  A
N684       Mn700   2.192       .  S
N685       N1956   1.320   1_455  A
N685        C691   1.350       .  A
N686        N687   1.318       .  A
N686       Mn711   2.190       .  S
N687       C1963   1.349       .  A
N688        N689   1.322       .  A
N688       Mn700   2.206       .  S
N689        C690   1.351       .  A
C690        C930   1.435       .  S
C691       N1959   1.349   1_455  A
C691        C936   1.427       .  S
N692        N698   1.316       .  A
N692        N693   1.324       .  A
N692       Mn722   2.215       .  S
N693        C701   1.355       .  A
N694        N695   1.322       .  A
N694        N696   1.318       .  A
N694       Mn700   2.207       .  S
N695        C702   1.352       .  A
N696        N697   1.321       .  A
N696       Mn722   2.213       .  S
N697        C702   1.351       .  A
N698        N699   1.317       .  A
N698       Mn700   2.183       .  S
N699        C701   1.345       .  A
Mn700      Cl724   2.550       .  S
C701        C928   1.434       .  S
C702        C946   1.439       .  S
N703        N704   1.317       .  A
N703        N709   1.315       .  A
N703       Mn711   2.184       .  S
N705        N707   1.319       .  A
N705        N706   1.323       .  A
N705       Mn723   2.214       .  S
N706        C713   1.352       .  A
N707        N708   1.319       .  A
N707       Mn711   2.195       .  S
N708        C713   1.347       .  A
N709       Mn723   2.188       .  S
N710        C712   1.349       .  A
Mn711      Cl724   2.533       .  S
C712        C944   1.424       .  S
C713        C933   1.438       .  S
N714        N715   1.319       .  A
N714        N720   1.317       .  A
N714       Mn722   2.204       .  S
N715        C725   1.349       .  A
N716        N717   1.319       .  A
N716        N718   1.317       .  A
N716       Mn723   2.198       .  S
N717        C726   1.347       .  A
N718        N719   1.326       .  A
N718       Mn722   2.229       .  S
N719        C726   1.357       .  A
N720        N721   1.322       .  A
N720       Mn723   2.205       .  S
N721        C725   1.352       .  A
Mn722      Cl724   2.549       .  S
Mn723      Cl724   2.550       .  S
C725        C938   1.435       .  S
C726        C931   1.446       .  S
N727        N728   1.327       .  A
N727        N733   1.317       .  A
N727       Mn756   2.236       .  S
N728        C735   1.359       .  A
N729        N731   1.317       .  A
N729        N730   1.321       .  A
N729       Mn745   2.202       .  S
N730        C736   1.352       .  A
N731        N732   1.319       .  A
N731       Mn756   2.203       .  S
N732        C736   1.349       .  A
N733        N734   1.319       .  A
N733       Mn745   2.191       .  S
N734        C735   1.346       .  A
C735        C942   1.446       .  S
C736        C922   1.434       .  S
N737        N743   1.319       .  A
N737        N738   1.320       .  A
N737       Mn767   2.209       .  S
N738        C746   1.350       .  A
N739       N2012   1.319   1_455  A
N739        N741   1.314       .  A
N739       Mn745   2.184       .  S
N740       N2011   1.319       .  A
N740        C747   1.349       .  A
N741        N742   1.318       .  A
N741       Mn767   2.187       .  S
N742       C2019   1.349   1_455  A
N743        N744   1.323       .  A
N743       Mn745   2.208       .  S
N744        C746   1.351       .  A
Mn745      Cl769   2.551       .  S
C746        C940   1.441       .  S
C747       N2014   1.349       .  A
C747        C925   1.424       .  S
N748        N749   1.321       .  A
N748        N754   1.319       .  A
N748       Mn756   2.219       .  S
N749        C757   1.351       .  A
N750        N752   1.316       .  A
N750        N751   1.318       .  A
N750       Mn768   2.193       .  S
N751        C758   1.346       .  A
N752        N753   1.324       .  A
N752       Mn756   2.211       .  S
N753        C758   1.354       .  A
N754        N755   1.322       .  A
N754       Mn768   2.207       .  S
N755        C757   1.352       .  A
Mn756      Cl769   2.549       .  S
C757        C923   1.439       .  S
C758        C917   1.437       .  S
N759        N760   1.319       .  A
N759        N765   1.315       .  A
N759       Mn767   2.195       .  S
N761        N762   1.324       .  A
N761        N763   1.319       .  A
N761       Mn768   2.215       .  S
N762        C771   1.352       .  A
N763        N764   1.320       .  A
N763       Mn767   2.200       .  S
N764        C771   1.348       .  A
N765       Mn768   2.188       .  S
N766        C770   1.349       .  A
Mn767      Cl769   2.539       .  S
Mn768      Cl769   2.548       .  S
C770        C920   1.427       .  S
C771        C915   1.443       .  S
N772        N773   1.321       .  A
N772        N778   1.318       .  A
N772       Mn801   2.211       .  S
N773        C780   1.350       .  A
N774        N776   1.316       .  A
N774        N775   1.317       .  A
N774       Mn790   2.188       .  S
N775        C781   1.345       .  A
N776        N777   1.324       .  A
N776       Mn801   2.215       .  S
N777        C781   1.355       .  A
N778        N779   1.321       .  A
N778       Mn790   2.206       .  S
N779        C780   1.352       .  A
C780        C949   1.437       .  S
C781        C913   1.435       .  S
N782        N788   1.314       .  A
N782        N783   1.318       .  A
N782       Mn812   2.189       .  S
N783        C791   1.349       .  A
N784        N785   1.324       .  A
N784        N786   1.318       .  A
N784       Mn790   2.211       .  S
N785        C792   1.352       .  A
N786        N787   1.319       .  A
N786       Mn812   2.194       .  S
N787        C792   1.347       .  A
N788        N789   1.320       .  A
N788       Mn790   2.191       .  S
N789        C791   1.350       .  A
Mn790      Cl814   2.550       .  S
C791        C935   1.427       .  S
C792        C911   1.439       .  S
N793        N794   1.325       .  A
N793        N799   1.317       .  A
N793       Mn801   2.224       .  S
N794        C802   1.356       .  A
N795        N797   1.317       .  A
N795        N796   1.321       .  A
N795       Mn813   2.204       .  S
N796        C803   1.351       .  A
N797        N798   1.320       .  A
N797       Mn801   2.206       .  S
N798        C803   1.350       .  A
N799        N800   1.319       .  A
N799       Mn813   2.197       .  S
N800        C802   1.347       .  A
Mn801      Cl814   2.547       .  S
C802        C916   1.443       .  S
C803        C937   1.436       .  S
N804        N805   1.319       .  A
N804        N810   1.318       .  A
N804       Mn812   2.196       .  S
N805        C815   1.348       .  A
N806        N808   1.314       .  A
N806       Mn813   2.192       .  S
N807        C816   1.350       .  A
N808        N809   1.317       .  A
N808       Mn812   2.179       .  S
N810        N811   1.323       .  A
N810       Mn813   2.209       .  S
N811        C815   1.351       .  A
Mn812      Cl814   2.535       .  S
Mn813      Cl814   2.550       .  S
C815        C918   1.436       .  S
C816        C947   1.424       .  S
N817        N818   1.317       .  A
N817        N823   1.314       .  A
N817       Mn846   2.183       .  S
N818       C2097   1.347   1_455  A
N819        N821   1.318       .  A
N819        N820   1.321       .  A
N819       Mn835   2.201       .  S
N820        C826   1.350       .  A
N821        N822   1.319       .  A
N821       Mn846   2.198       .  S
N822        C826   1.349       .  A
N823       N2096   1.321   1_455  A
N823       Mn835   2.197       .  S
N824       N2095   1.321       .  A
N824        C825   1.352       .  A
C825       N2090   1.347       .  A
C825        C907   1.427       .  S
C826        C927   1.434       .  S
N827        N833   1.317       .  A
N827        N828   1.320       .  A
N827       Mn857   2.207       .  S
N828        C836   1.350       .  A
N829        N830   1.318       .  A
N829        N831   1.317       .  A
N829       Mn835   2.189       .  S
N830        C837   1.347       .  A
N831        N832   1.323       .  A
N831       Mn857   2.215       .  S
N832        C837   1.354       .  A
N833        N834   1.321       .  A
N833       Mn835   2.201       .  S
N834        C836   1.351       .  A
Mn835      Cl859   2.547       .  S
C836        C921   1.434       .  S
C837        C929   1.435       .  S
N838        N839   1.319       .  A
N838        N844   1.318       .  A
N838       Mn846   2.196       .  S
N839        C847   1.348       .  A
N840        N842   1.315       .  A
N840        N841   1.320       .  A
N840       Mn858   2.192       .  S
N841        C848   1.351       .  A
N842        N843   1.318       .  A
N842       Mn846   2.187       .  S
N843        C848   1.348       .  A
N844        N845   1.322       .  A
N844       Mn858   2.204       .  S
N845        C847   1.350       .  A
Mn846      Cl859   2.533       .  S
C847        C914   1.435       .  S
C848        C919   1.427       .  S
N849        N850   1.324       .  A
N849        N855   1.316       .  A
N849       Mn857   2.217       .  S
N850        C860   1.355       .  A
N851        N852   1.321       .  A
N851        N853   1.317       .  A
N851       Mn858   2.200       .  S
N852        C861   1.350       .  A
N853        N854   1.320       .  A
N853       Mn857   2.208       .  S
N854        C861   1.351       .  A
N855        N856   1.318       .  A
N855       Mn858   2.193       .  S
N856        C860   1.347       .  A
Mn857      Cl859   2.549       .  S
Mn858      Cl859   2.546       .  S
C860        C912   1.439       .  S
C861        C909   1.435       .  S
N862        N863   1.318       .  A
N862        N868   1.314       .  A
N862       Mn891   2.188       .  S
N863        C870   1.348       .  A
N864        N866   1.319       .  A
N864        N865   1.322       .  A
N864       Mn880   2.205       .  S
N865        C871   1.351       .  A
N866        N867   1.320       .  A
N866       Mn891   2.211       .  S
N867        C871   1.351       .  A
N868        N869   1.319       .  A
N868       Mn880   2.186       .  S
N869        C870   1.349       .  A
C870        C926   1.424       .  S
C871        C952   1.439       .  S
N872        N878   1.317       .  A
N872        N873   1.319       .  A
N872       Mn902   2.201       .  S
N873        C881   1.349       .  A
N874        N875   1.318       .  A
N874        N876   1.316       .  A
N874       Mn880   2.187       .  S
N875        C882   1.346       .  A
N876        N877   1.326       .  A
N876       Mn902   2.230       .  S
N877        C882   1.358       .  A
N878        N879   1.322       .  A
N878       Mn880   2.204       .  S
N879        C881   1.352       .  A
Mn880      Cl904   2.551       .  S
C881        C910   1.435       .  S
C882        C953   1.443       .  S
N883        N884   1.321       .  A
N883        N889   1.320       .  A
N883       Mn891   2.202       .  S
N884        C892   1.349       .  A
N885        N887   1.315       .  A
N885       Mn903   2.185       .  S
N886        C893   1.348       .  A
N887        N888   1.320       .  A
N887       Mn891   2.200       .  S
N889        N890   1.325       .  A
N889       Mn903   2.221       .  S
N890        C892   1.353       .  A
Mn891      Cl904   2.538       .  S
C892        C932   1.447       .  S
C893        C908   1.427       .  S
N894        N895   1.324       .  A
N894        N900   1.316       .  A
N894       Mn902   2.211       .  S
N895        C905   1.354       .  A
N896        N897   1.323       .  A
N896        N898   1.319       .  A
N896       Mn903   2.211       .  S
N897        C906   1.353       .  A
N898        N899   1.320       .  A
N898       Mn902   2.212       .  S
N899        C906   1.350       .  A
N900        N901   1.319       .  A
N900       Mn903   2.195       .  S
N901        C905   1.347       .  A
Mn902      Cl904   2.549       .  S
Mn903      Cl904   2.549       .  S
C905        C934   1.438       .  S
C906        C924   1.439       .  S
C907        C908   1.201       .  T
C909        C910   1.205       .  T
C911        C912   1.208       .  T
C913       C1232   1.206       .  T
C914       C1231   1.206   1_554  T
C919        C920   1.200       .  T
C921        C922   1.205       .  T
C923        C924   1.208       .  T
C925        C926   1.199       .  T
C927       C2518   1.205   1_454  T
C928       C2517   1.205       .  T
C929       C2202   1.206       .  T
C930       C2201   1.206       .  T
C935        C936   1.200       .  T
C937        C938   1.205       .  T
C939       C2530   1.209       .  T
C940       C2529   1.209   1_454  T
C941       C2214   1.212       .  T
C942       C2213   1.212   1_455  T
C943        C944   1.199       .  T
C945        C946   1.208       .  T
C947        C948   1.199       .  T
C949        C950   1.206       .  T
C951       C1270   1.208       .  T
C952       C1269   1.208   1_554  T
C953        C954   1.210       .  T
N955        N956   1.317       .  A
N955        N961   1.315       .  A
N955       Mn984   2.186       .  S
N956        C963   1.347       .  A
N957        N959   1.318       .  A
N957        N958   1.323       .  A
N957       Mn973   2.206       .  S
N958        C964   1.351       .  A
N959        N960   1.320       .  A
N959       Mn984   2.199       .  S
N960        C964   1.349       .  A
N961        N962   1.319       .  A
N961       Mn973   2.190       .  S
N962        C963   1.350       .  A
C963       C1261   1.424       .  S
C964       C1269   1.438       .  S
N965        N971   1.318       .  A
N965        N966   1.322       .  A
N965       Mn995   2.218       .  S
N966        C974   1.352       .  A
N967        N968   1.319       .  A
N967        N969   1.317       .  A
N967       Mn973   2.192       .  S
N968        C975   1.346       .  A
N969        N970   1.326       .  A
N969       Mn995   2.229       .  S
N970        C975   1.357       .  A
N971        N972   1.320       .  A
N971       Mn973   2.198       .  S
N972        C974   1.350       .  A
Mn973      Cl997   2.547       .  S
C974       C1268   1.437       .  S
C975       C1272   1.443       .  S
N976        N977   1.320       .  A
N976        N982   1.318       .  A
N976       Mn984   2.200       .  S
N977        C985   1.350       .  A
N978        N980   1.315       .  A
N978       N2251   1.319       .  A
N978       Mn996   2.189       .  S
N979       N2250   1.319   1_455  A
N979        C986   1.349       .  A
N980        N981   1.318       .  A
N980       Mn984   2.187       .  S
N981       C2258   1.348       .  A
N982        N983   1.323       .  A
N982       Mn996   2.209       .  S
N983        C985   1.352       .  A
Mn984      Cl997   2.541       .  S
C985       C1257   1.440       .  S
C986       N2253   1.348   1_455  A
C986       C1266   1.424       .  S
N987        N988   1.327       .  A
N987        N993   1.317       .  A
N987       Mn995   2.233       .  S
N988        C998   1.358       .  A
N989        N990   1.321       .  A
N989        N991   1.318       .  A
N989       Mn996   2.201       .  S
N990        C999   1.351       .  A
N991        N992   1.322       .  A
N991       Mn995   2.217       .  S
N992        C999   1.352       .  A
N993        N994   1.319       .  A
N993       Mn996   2.195       .  S
N994        C998   1.346       .  A
Mn995      Cl997   2.553       .  S
Mn996      Cl997   2.546       .  S
C998       C1259   1.446       .  S
C999       C1263   1.439       .  S
N1000      N1001   1.319       .  A
N1000      N1006   1.317       .  A
N1000     Mn1029   2.193       .  S
N1001      C1008   1.347       .  A
N1002      N1004   1.315       .  A
N1002      N2275   1.320       .  A
N1002     Mn1018   2.192       .  S
N1003      N2274   1.320   1_455  A
N1003      C1009   1.350       .  A
N1004      N1005   1.318       .  A
N1004     Mn1029   2.190       .  S
N1005      C2281   1.349       .  A
N1006      N1007   1.322       .  A
N1006     Mn1018   2.206       .  S
N1007      C1008   1.351       .  A
C1008      C1248   1.435       .  S
C1009      N2277   1.349   1_455  A
C1009      C1254   1.427       .  S
N1010      N1016   1.316       .  A
N1010      N1011   1.324       .  A
N1010     Mn1040   2.215       .  S
N1011      C1019   1.355       .  A
N1012      N1013   1.322       .  A
N1012      N1014   1.318       .  A
N1012     Mn1018   2.207       .  S
N1013      C1020   1.352       .  A
N1014      N1015   1.321       .  A
N1014     Mn1040   2.213       .  S
N1015      C1020   1.351       .  A
N1016      N1017   1.317       .  A
N1016     Mn1018   2.183       .  S
N1017      C1019   1.345       .  A
Mn1018    Cl1042   2.550       .  S
C1019      C1246   1.434       .  S
C1020      C1264   1.439       .  S
N1021      N1022   1.317       .  A
N1021      N1027   1.315       .  A
N1021     Mn1029   2.184       .  S
N1023      N1025   1.319       .  A
N1023      N1024   1.323       .  A
N1023     Mn1041   2.214       .  S
N1024      C1031   1.352       .  A
N1025      N1026   1.319       .  A
N1025     Mn1029   2.195       .  S
N1026      C1031   1.347       .  A
N1027     Mn1041   2.188       .  S
N1028      C1030   1.349       .  A
Mn1029    Cl1042   2.533       .  S
C1030      C1262   1.424       .  S
C1031      C1251   1.438       .  S
N1032      N1033   1.319       .  A
N1032      N1038   1.317       .  A
N1032     Mn1040   2.204       .  S
N1033      C1043   1.349       .  A
N1034      N1035   1.319       .  A
N1034      N1036   1.317       .  A
N1034     Mn1041   2.198       .  S
N1035      C1044   1.347       .  A
N1036      N1037   1.326       .  A
N1036     Mn1040   2.229       .  S
N1037      C1044   1.357       .  A
N1038      N1039   1.322       .  A
N1038     Mn1041   2.205       .  S
N1039      C1043   1.352       .  A
Mn1040    Cl1042   2.549       .  S
Mn1041    Cl1042   2.550       .  S
C1043      C1256   1.435       .  S
C1044      C1249   1.446       .  S
N1045      N1046   1.327       .  A
N1045      N1051   1.317       .  A
N1045     Mn1074   2.236       .  S
N1046      C1053   1.359       .  A
N1047      N1049   1.317       .  A
N1047      N1048   1.321       .  A
N1047     Mn1063   2.202       .  S
N1048      C1054   1.352       .  A
N1049      N1050   1.319       .  A
N1049     Mn1074   2.203       .  S
N1050      C1054   1.349       .  A
N1051      N1052   1.319       .  A
N1051     Mn1063   2.191       .  S
N1052      C1053   1.346       .  A
C1053      C1260   1.446       .  S
C1054      C1240   1.434       .  S
N1055      N1061   1.319       .  A
N1055      N1056   1.320       .  A
N1055     Mn1085   2.209       .  S
N1056      C1064   1.350       .  A
N1057      N2330   1.319   1_455  A
N1057      N1059   1.314       .  A
N1057     Mn1063   2.184       .  S
N1058      N2329   1.319       .  A
N1058      C1065   1.349       .  A
N1059      N1060   1.318       .  A
N1059     Mn1085   2.187       .  S
N1060      C2337   1.349   1_455  A
N1061      N1062   1.323       .  A
N1061     Mn1063   2.208       .  S
N1062      C1064   1.351       .  A
Mn1063    Cl1087   2.551       .  S
C1064      C1258   1.441       .  S
C1065      N2332   1.349       .  A
C1065      C1243   1.424       .  S
N1066      N1067   1.321       .  A
N1066      N1072   1.319       .  A
N1066     Mn1074   2.219       .  S
N1067      C1075   1.351       .  A
N1068      N1070   1.316       .  A
N1068      N1069   1.318       .  A
N1068     Mn1086   2.193       .  S
N1069      C1076   1.346       .  A
N1070      N1071   1.324       .  A
N1070     Mn1074   2.211       .  S
N1071      C1076   1.354       .  A
N1072      N1073   1.322       .  A
N1072     Mn1086   2.207       .  S
N1073      C1075   1.352       .  A
Mn1074    Cl1087   2.549       .  S
C1075      C1241   1.439       .  S
C1076      C1235   1.437       .  S
N1077      N1078   1.319       .  A
N1077      N1083   1.315       .  A
N1077     Mn1085   2.195       .  S
N1079      N1080   1.324       .  A
N1079      N1081   1.319       .  A
N1079     Mn1086   2.215       .  S
N1080      C1089   1.352       .  A
N1081      N1082   1.320       .  A
N1081     Mn1085   2.200       .  S
N1082      C1089   1.348       .  A
N1083     Mn1086   2.188       .  S
N1084      C1088   1.349       .  A
Mn1085    Cl1087   2.539       .  S
Mn1086    Cl1087   2.548       .  S
C1088      C1238   1.427       .  S
C1089      C1233   1.443       .  S
N1090      N1091   1.321       .  A
N1090      N1096   1.318       .  A
N1090     Mn1119   2.211       .  S
N1091      C1098   1.350       .  A
N1092      N1094   1.316       .  A
N1092      N1093   1.317       .  A
N1092     Mn1108   2.188       .  S
N1093      C1099   1.345       .  A
N1094      N1095   1.324       .  A
N1094     Mn1119   2.215       .  S
N1095      C1099   1.355       .  A
N1096      N1097   1.321       .  A
N1096     Mn1108   2.206       .  S
N1097      C1098   1.352       .  A
C1098      C1267   1.437       .  S
C1099      C1231   1.435       .  S
N1100      N1106   1.314       .  A
N1100      N1101   1.318       .  A
N1100     Mn1130   2.189       .  S
N1101      C1109   1.349       .  A
N1102      N1103   1.324       .  A
N1102      N1104   1.318       .  A
N1102     Mn1108   2.211       .  S
N1103      C1110   1.352       .  A
N1104      N1105   1.319       .  A
N1104     Mn1130   2.194       .  S
N1105      C1110   1.347       .  A
N1106      N1107   1.320       .  A
N1106     Mn1108   2.191       .  S
N1107      C1109   1.350       .  A
Mn1108    Cl1132   2.550       .  S
C1109      C1253   1.427       .  S
C1110      C1229   1.439       .  S
N1111      N1112   1.325       .  A
N1111      N1117   1.317       .  A
N1111     Mn1119   2.224       .  S
N1112      C1120   1.356       .  A
N1113      N1115   1.317       .  A
N1113      N1114   1.321       .  A
N1113     Mn1131   2.204       .  S
N1114      C1121   1.351       .  A
N1115      N1116   1.320       .  A
N1115     Mn1119   2.206       .  S
N1116      C1121   1.350       .  A
N1117      N1118   1.319       .  A
N1117     Mn1131   2.197       .  S
N1118      C1120   1.347       .  A
Mn1119    Cl1132   2.547       .  S
C1120      C1234   1.443       .  S
C1121      C1255   1.436       .  S
N1122      N1123   1.319       .  A
N1122      N1128   1.318       .  A
N1122     Mn1130   2.196       .  S
N1123      C1133   1.348       .  A
N1124      N1126   1.314       .  A
N1124     Mn1131   2.192       .  S
N1125      C1134   1.350       .  A
N1126      N1127   1.317       .  A
N1126     Mn1130   2.179       .  S
N1128      N1129   1.323       .  A
N1128     Mn1131   2.209       .  S
N1129      C1133   1.351       .  A
Mn1130    Cl1132   2.535       .  S
Mn1131    Cl1132   2.550       .  S
C1133      C1236   1.436       .  S
C1134      C1265   1.424       .  S
N1135      N1136   1.317       .  A
N1135      N1141   1.314       .  A
N1135     Mn1164   2.183       .  S
N1136      C2415   1.347   1_455  A
N1137      N1139   1.318       .  A
N1137      N1138   1.321       .  A
N1137     Mn1153   2.201       .  S
N1138      C1144   1.350       .  A
N1139      N1140   1.319       .  A
N1139     Mn1164   2.198       .  S
N1140      C1144   1.349       .  A
N1141      N2414   1.321   1_455  A
N1141     Mn1153   2.197       .  S
N1142      N2413   1.321       .  A
N1142      C1143   1.352       .  A
C1143      N2408   1.347       .  A
C1143      C1225   1.427       .  S
C1144      C1245   1.434       .  S
N1145      N1151   1.317       .  A
N1145      N1146   1.320       .  A
N1145     Mn1175   2.207       .  S
N1146      C1154   1.350       .  A
N1147      N1148   1.318       .  A
N1147      N1149   1.317       .  A
N1147     Mn1153   2.189       .  S
N1148      C1155   1.347       .  A
N1149      N1150   1.323       .  A
N1149     Mn1175   2.215       .  S
N1150      C1155   1.354       .  A
N1151      N1152   1.321       .  A
N1151     Mn1153   2.201       .  S
N1152      C1154   1.351       .  A
Mn1153    Cl1177   2.547       .  S
C1154      C1239   1.434       .  S
C1155      C1247   1.435       .  S
N1156      N1157   1.319       .  A
N1156      N1162   1.318       .  A
N1156     Mn1164   2.196       .  S
N1157      C1165   1.348       .  A
N1158      N1160   1.315       .  A
N1158      N1159   1.320       .  A
N1158     Mn1176   2.192       .  S
N1159      C1166   1.351       .  A
N1160      N1161   1.318       .  A
N1160     Mn1164   2.187       .  S
N1161      C1166   1.348       .  A
N1162      N1163   1.322       .  A
N1162     Mn1176   2.204       .  S
N1163      C1165   1.350       .  A
Mn1164    Cl1177   2.533       .  S
C1165      C1232   1.435       .  S
C1166      C1237   1.427       .  S
N1167      N1168   1.324       .  A
N1167      N1173   1.316       .  A
N1167     Mn1175   2.217       .  S
N1168      C1178   1.355       .  A
N1169      N1170   1.321       .  A
N1169      N1171   1.317       .  A
N1169     Mn1176   2.200       .  S
N1170      C1179   1.350       .  A
N1171      N1172   1.320       .  A
N1171     Mn1175   2.208       .  S
N1172      C1179   1.351       .  A
N1173      N1174   1.318       .  A
N1173     Mn1176   2.193       .  S
N1174      C1178   1.347       .  A
Mn1175    Cl1177   2.549       .  S
Mn1176    Cl1177   2.546       .  S
C1178      C1230   1.439       .  S
C1179      C1227   1.435       .  S
N1180      N1181   1.318       .  A
N1180      N1186   1.314       .  A
N1180     Mn1209   2.188       .  S
N1181      C1188   1.348       .  A
N1182      N1184   1.319       .  A
N1182      N1183   1.322       .  A
N1182     Mn1198   2.205       .  S
N1183      C1189   1.351       .  A
N1184      N1185   1.320       .  A
N1184     Mn1209   2.211       .  S
N1185      C1189   1.351       .  A
N1186      N1187   1.319       .  A
N1186     Mn1198   2.186       .  S
N1187      C1188   1.349       .  A
C1188      C1244   1.424       .  S
C1189      C1270   1.439       .  S
N1190      N1196   1.317       .  A
N1190      N1191   1.319       .  A
N1190     Mn1220   2.201       .  S
N1191      C1199   1.349       .  A
N1192      N1193   1.318       .  A
N1192      N1194   1.316       .  A
N1192     Mn1198   2.187       .  S
N1193      C1200   1.346       .  A
N1194      N1195   1.326       .  A
N1194     Mn1220   2.230       .  S
N1195      C1200   1.358       .  A
N1196      N1197   1.322       .  A
N1196     Mn1198   2.204       .  S
N1197      C1199   1.352       .  A
Mn1198    Cl1222   2.551       .  S
C1199      C1228   1.435       .  S
C1200      C1271   1.443       .  S
N1201      N1202   1.321       .  A
N1201      N1207   1.320       .  A
N1201     Mn1209   2.202       .  S
N1202      C1210   1.349       .  A
N1203      N1205   1.315       .  A
N1203     Mn1221   2.185       .  S
N1204      C1211   1.348       .  A
N1205      N1206   1.320       .  A
N1205     Mn1209   2.200       .  S
N1207      N1208   1.325       .  A
N1207     Mn1221   2.221       .  S
N1208      C1210   1.353       .  A
Mn1209    Cl1222   2.538       .  S
C1210      C1250   1.447       .  S
C1211      C1226   1.427       .  S
N1212      N1213   1.324       .  A
N1212      N1218   1.316       .  A
N1212     Mn1220   2.211       .  S
N1213      C1223   1.354       .  A
N1214      N1215   1.323       .  A
N1214      N1216   1.319       .  A
N1214     Mn1221   2.211       .  S
N1215      C1224   1.353       .  A
N1216      N1217   1.320       .  A
N1216     Mn1220   2.212       .  S
N1217      C1224   1.350       .  A
N1218      N1219   1.319       .  A
N1218     Mn1221   2.195       .  S
N1219      C1223   1.347       .  A
Mn1220    Cl1222   2.549       .  S
Mn1221    Cl1222   2.549       .  S
C1223      C1252   1.438       .  S
C1224      C1242   1.439       .  S
C1225      C1226   1.201       .  T
C1227      C1228   1.205       .  T
C1229      C1230   1.208       .  T
C1237      C1238   1.200       .  T
C1239      C1240   1.205       .  T
C1241      C1242   1.208       .  T
C1243      C1244   1.199       .  T
C1245      C2200   1.205   1_455  T
C1246      C2199   1.205   1_556  T
C1247      C2520   1.206       .  T
C1248      C2519   1.206       .  T
C1253      C1254   1.200       .  T
C1255      C1256   1.205       .  T
C1257      C2212   1.209   1_556  T
C1258      C2211   1.209   1_455  T
C1259      C2532   1.212       .  T
C1260      C2531   1.212   1_455  T
C1261      C1262   1.199       .  T
C1263      C1264   1.208       .  T
C1265      C1266   1.199       .  T
C1267      C1268   1.206       .  T
C1271      C1272   1.210       .  T
N1273      N1274   1.317       .  A
N1273      N1279   1.315       .  A
N1273     Mn1302   2.186       .  S
N1274      C1281   1.347       .  A
N1275      N1277   1.318       .  A
N1275      N1276   1.323       .  A
N1275     Mn1291   2.206       .  S
N1276      C1282   1.351       .  A
N1277      N1278   1.320       .  A
N1277     Mn1302   2.199       .  S
N1278      C1282   1.349       .  A
N1279      N1280   1.319       .  A
N1279     Mn1291   2.190       .  S
N1280      C1281   1.350       .  A
C1281      C1579   1.424       .  S
C1282      C1587   1.438       .  S
N1283      N1289   1.318       .  A
N1283      N1284   1.322       .  A
N1283     Mn1313   2.218       .  S
N1284      C1292   1.352       .  A
N1285      N1286   1.319       .  A
N1285      N1287   1.317       .  A
N1285     Mn1291   2.192       .  S
N1286      C1293   1.346       .  A
N1287      N1288   1.326       .  A
N1287     Mn1313   2.229       .  S
N1288      C1293   1.357       .  A
N1289      N1290   1.320       .  A
N1289     Mn1291   2.198       .  S
N1290      C1292   1.350       .  A
Mn1291    Cl1315   2.547       .  S
C1292      C1586   1.437       .  S
C1293      C1590   1.443       .  S
N1294      N1295   1.320       .  A
N1294      N1300   1.318       .  A
N1294     Mn1302   2.200       .  S
N1295      C1303   1.350       .  A
N1296      N1298   1.315       .  A
N1296     Mn1314   2.189       .  S
N1297      C1304   1.349       .  A
N1298      N1299   1.318       .  A
N1298     Mn1302   2.187       .  S
N1300      N1301   1.323       .  A
N1300     Mn1314   2.209       .  S
N1301      C1303   1.352       .  A
Mn1302    Cl1315   2.541       .  S
C1303      C1575   1.440       .  S
C1304      C1584   1.424       .  S
N1305      N1306   1.327       .  A
N1305      N1311   1.317       .  A
N1305     Mn1313   2.233       .  S
N1306      C1316   1.358       .  A
N1307      N1308   1.321       .  A
N1307      N1309   1.318       .  A
N1307     Mn1314   2.201       .  S
N1308      C1317   1.351       .  A
N1309      N1310   1.322       .  A
N1309     Mn1313   2.217       .  S
N1310      C1317   1.352       .  A
N1311      N1312   1.319       .  A
N1311     Mn1314   2.195       .  S
N1312      C1316   1.346       .  A
Mn1313    Cl1315   2.553       .  S
Mn1314    Cl1315   2.546       .  S
C1316      C1577   1.446       .  S
C1317      C1581   1.439       .  S
N1318      N1319   1.319       .  A
N1318      N1324   1.317       .  A
N1318     Mn1347   2.193       .  S
N1319      C1326   1.347       .  A
N1320      N1322   1.315       .  A
N1320     Mn1336   2.192       .  S
N1321      C1327   1.350       .  A
N1322      N1323   1.318       .  A
N1322     Mn1347   2.190       .  S
N1324      N1325   1.322       .  A
N1324     Mn1336   2.206       .  S
N1325      C1326   1.351       .  A
C1326      C1566   1.435   1_655  S
C1327      C1572   1.427       .  S
N1328      N1334   1.316       .  A
N1328      N1329   1.324       .  A
N1328     Mn1358   2.215       .  S
N1329      C1337   1.355       .  A
N1330      N1331   1.322       .  A
N1330      N1332   1.318       .  A
N1330     Mn1336   2.207       .  S
N1331      C1338   1.352       .  A
N1332      N1333   1.321       .  A
N1332     Mn1358   2.213       .  S
N1333      C1338   1.351       .  A
N1334      N1335   1.317       .  A
N1334     Mn1336   2.183       .  S
N1335      C1337   1.345       .  A
Mn1336    Cl1360   2.550       .  S
C1337      C1564   1.434       .  S
C1338      C1582   1.439       .  S
N1339      N1340   1.317       .  A
N1339      N1345   1.315       .  A
N1339     Mn1347   2.184       .  S
N1340      C1984   1.347   1_545  A
N1341      N1343   1.319       .  A
N1341      N1342   1.323       .  A
N1341     Mn1359   2.214       .  S
N1342      C1349   1.352       .  A
N1343      N1344   1.319       .  A
N1343     Mn1347   2.195       .  S
N1344      C1349   1.347       .  A
N1345      N1982   1.319   1_545  A
N1345     Mn1359   2.188       .  S
N1346      N1981   1.319       .  A
N1346      C1348   1.349       .  A
Mn1347    Cl1360   2.533       .  S
C1348      N1976   1.347       .  A
C1348      C1580   1.424       .  S
C1349      C1569   1.438       .  S
N1350      N1351   1.319       .  A
N1350      N1356   1.317       .  A
N1350     Mn1358   2.204       .  S
N1351      C1361   1.349       .  A
N1352      N1353   1.319       .  A
N1352      N1354   1.317       .  A
N1352     Mn1359   2.198       .  S
N1353      C1362   1.347       .  A
N1354      N1355   1.326       .  A
N1354     Mn1358   2.229       .  S
N1355      C1362   1.357       .  A
N1356      N1357   1.322       .  A
N1356     Mn1359   2.205       .  S
N1357      C1361   1.352       .  A
Mn1358    Cl1360   2.549       .  S
Mn1359    Cl1360   2.550       .  S
C1361      C1574   1.435       .  S
C1362      C1567   1.446       .  S
N1363      N1364   1.327       .  A
N1363      N1369   1.317       .  A
N1363     Mn1392   2.236       .  S
N1364      C1371   1.359       .  A
N1365      N1367   1.317       .  A
N1365      N1366   1.321       .  A
N1365     Mn1381   2.202       .  S
N1366      C1372   1.352       .  A
N1367      N1368   1.319       .  A
N1367     Mn1392   2.203       .  S
N1368      C1372   1.349       .  A
N1369      N1370   1.319       .  A
N1369     Mn1381   2.191       .  S
N1370      C1371   1.346       .  A
C1371      C1578   1.446       .  S
C1372      C1558   1.434       .  S
N1373      N1379   1.319       .  A
N1373      N1374   1.320       .  A
N1373     Mn1403   2.209       .  S
N1374      C1382   1.350       .  A
N1375      N1377   1.314       .  A
N1375     Mn1381   2.184       .  S
N1376      C1383   1.349       .  A
N1377      N1378   1.318       .  A
N1377     Mn1403   2.187       .  S
N1379      N1380   1.323       .  A
N1379     Mn1381   2.208       .  S
N1380      C1382   1.351       .  A
Mn1381    Cl1405   2.551       .  S
C1382      C1576   1.441       .  S
C1383      C1561   1.424       .  S
N1384      N1385   1.321       .  A
N1384      N1390   1.319       .  A
N1384     Mn1392   2.219       .  S
N1385      C1393   1.351       .  A
N1386      N1388   1.316       .  A
N1386      N1387   1.318       .  A
N1386     Mn1404   2.193       .  S
N1387      C1394   1.346       .  A
N1388      N1389   1.324       .  A
N1388     Mn1392   2.211       .  S
N1389      C1394   1.354       .  A
N1390      N1391   1.322       .  A
N1390     Mn1404   2.207       .  S
N1391      C1393   1.352       .  A
Mn1392    Cl1405   2.549       .  S
C1393      C1559   1.439       .  S
C1394      C1553   1.437       .  S
N1395      N1396   1.319       .  A
N1395      N1401   1.315       .  A
N1395     Mn1403   2.195       .  S
N1396      C2042   1.350       .  A
N1397      N1398   1.324       .  A
N1397      N1399   1.319       .  A
N1397     Mn1404   2.215       .  S
N1398      C1407   1.352       .  A
N1399      N1400   1.320       .  A
N1399     Mn1403   2.200       .  S
N1400      C1407   1.348       .  A
N1401      N2038   1.319       .  A
N1401     Mn1404   2.188       .  S
N1402      N2037   1.319   1_545  A
N1402      C1406   1.349       .  A
Mn1403    Cl1405   2.539       .  S
Mn1404    Cl1405   2.548       .  S
C1406      N2032   1.350   1_545  A
C1406      C1556   1.427       .  S
C1407      C1551   1.443       .  S
N1408      N1409   1.321       .  A
N1408      N1414   1.318       .  A
N1408     Mn1437   2.211       .  S
N1409      C1416   1.350       .  A
N1410      N1412   1.316       .  A
N1410      N1411   1.317       .  A
N1410     Mn1426   2.188       .  S
N1411      C1417   1.345       .  A
N1412      N1413   1.324       .  A
N1412     Mn1437   2.215       .  S
N1413      C1417   1.355       .  A
N1414      N1415   1.321       .  A
N1414     Mn1426   2.206       .  S
N1415      C1416   1.352       .  A
C1416      C1585   1.437       .  S
C1417      C1549   1.435       .  S
N1418      N1424   1.314       .  A
N1418      N1419   1.318       .  A
N1418     Mn1448   2.189       .  S
N1419      C1427   1.349       .  A
N1420      N1421   1.324       .  A
N1420      N1422   1.318       .  A
N1420     Mn1426   2.211       .  S
N1421      C1428   1.352       .  A
N1422      N1423   1.319       .  A
N1422     Mn1448   2.194       .  S
N1423      C1428   1.347       .  A
N1424      N1425   1.320       .  A
N1424     Mn1426   2.191       .  S
N1425      C1427   1.350       .  A
Mn1426    Cl1450   2.550       .  S
C1427      C1571   1.427       .  S
C1428      C1547   1.439       .  S
N1429      N1430   1.325       .  A
N1429      N1435   1.317       .  A
N1429     Mn1437   2.224       .  S
N1430      C1438   1.356       .  A
N1431      N1433   1.317       .  A
N1431      N1432   1.321       .  A
N1431     Mn1449   2.204       .  S
N1432      C1439   1.351       .  A
N1433      N1434   1.320       .  A
N1433     Mn1437   2.206       .  S
N1434      C1439   1.350       .  A
N1435      N1436   1.319       .  A
N1435     Mn1449   2.197       .  S
N1436      C1438   1.347       .  A
Mn1437    Cl1450   2.547       .  S
C1438      C1552   1.443       .  S
C1439      C1573   1.436       .  S
N1440      N1441   1.319       .  A
N1440      N1446   1.318       .  A
N1440     Mn1448   2.196       .  S
N1441      C1451   1.348       .  A
N1442      N2079   1.320   1_545  A
N1442      N1444   1.314       .  A
N1442     Mn1449   2.192       .  S
N1443      N2078   1.320       .  A
N1443      C1452   1.350       .  A
N1444      N1445   1.317       .  A
N1444     Mn1448   2.179       .  S
N1445      C2088   1.346   1_545  A
N1446      N1447   1.323       .  A
N1446     Mn1449   2.209       .  S
N1447      C1451   1.351       .  A
Mn1448    Cl1450   2.535       .  S
Mn1449    Cl1450   2.550       .  S
C1451      C1554   1.436       .  S
C1452      N2081   1.346       .  A
C1452      C1583   1.424       .  S
N1453      N1454   1.317       .  A
N1453      N1459   1.314       .  A
N1453     Mn1482   2.183       .  S
N1455      N1457   1.318       .  A
N1455      N1456   1.321       .  A
N1455     Mn1471   2.201       .  S
N1456      C1462   1.350       .  A
N1457      N1458   1.319       .  A
N1457     Mn1482   2.198       .  S
N1458      C1462   1.349       .  A
N1459     Mn1471   2.197       .  S
N1460      C1461   1.352       .  A
C1461      C1543   1.427       .  S
C1462      C1563   1.434       .  S
N1463      N1469   1.317       .  A
N1463      N1464   1.320       .  A
N1463     Mn1493   2.207       .  S
N1464      C1472   1.350       .  A
N1465      N1466   1.318       .  A
N1465      N1467   1.317       .  A
N1465     Mn1471   2.189       .  S
N1466      C1473   1.347       .  A
N1467      N1468   1.323       .  A
N1467     Mn1493   2.215       .  S
N1468      C1473   1.354       .  A
N1469      N1470   1.321       .  A
N1469     Mn1471   2.201       .  S
N1470      C1472   1.351       .  A
Mn1471    Cl1495   2.547       .  S
C1472      C1557   1.434       .  S
C1473      C1565   1.435       .  S
N1474      N1475   1.319       .  A
N1474      N1480   1.318       .  A
N1474     Mn1482   2.196       .  S
N1475      C1483   1.348       .  A
N1476      N1478   1.315       .  A
N1476      N1477   1.320       .  A
N1476     Mn1494   2.192       .  S
N1477      C1484   1.351       .  A
N1478      N1479   1.318       .  A
N1478     Mn1482   2.187       .  S
N1479      C1484   1.348       .  A
N1480      N1481   1.322       .  A
N1480     Mn1494   2.204       .  S
N1481      C1483   1.350       .  A
Mn1482    Cl1495   2.533       .  S
C1483      C1550   1.435       .  S
C1484      C1555   1.427       .  S
N1485      N1486   1.324       .  A
N1485      N1491   1.316       .  A
N1485     Mn1493   2.217       .  S
N1486      C1496   1.355       .  A
N1487      N1488   1.321       .  A
N1487      N1489   1.317       .  A
N1487     Mn1494   2.200       .  S
N1488      C1497   1.350       .  A
N1489      N1490   1.320       .  A
N1489     Mn1493   2.208       .  S
N1490      C1497   1.351       .  A
N1491      N1492   1.318       .  A
N1491     Mn1494   2.193       .  S
N1492      C1496   1.347       .  A
Mn1493    Cl1495   2.549       .  S
Mn1494    Cl1495   2.546       .  S
C1496      C1548   1.439       .  S
C1497      C1545   1.435       .  S
N1498      N1499   1.318       .  A
N1498      N1504   1.314       .  A
N1498     Mn1527   2.188       .  S
N1499      C1506   1.348       .  A
N1500      N1502   1.319       .  A
N1500      N1501   1.322       .  A
N1500     Mn1516   2.205       .  S
N1501      C1507   1.351       .  A
N1502      N1503   1.320       .  A
N1502     Mn1527   2.211       .  S
N1503      C1507   1.351       .  A
N1504      N1505   1.319       .  A
N1504     Mn1516   2.186       .  S
N1505      C1506   1.349       .  A
C1506      C1562   1.424       .  S
C1507      C1588   1.439       .  S
N1508      N1514   1.317       .  A
N1508      N1509   1.319       .  A
N1508     Mn1538   2.201       .  S
N1509      C1517   1.349       .  A
N1510      N1511   1.318       .  A
N1510      N1512   1.316       .  A
N1510     Mn1516   2.187       .  S
N1511      C1518   1.346       .  A
N1512      N1513   1.326       .  A
N1512     Mn1538   2.230       .  S
N1513      C1518   1.358       .  A
N1514      N1515   1.322       .  A
N1514     Mn1516   2.204       .  S
N1515      C1517   1.352       .  A
Mn1516    Cl1540   2.551       .  S
C1517      C1546   1.435       .  S
C1518      C1589   1.443       .  S
N1519      N1520   1.321       .  A
N1519      N1525   1.320       .  A
N1519     Mn1527   2.202       .  S
N1520      C1528   1.349       .  A
N1521      N1523   1.315       .  A
N1521      N2158   1.318       .  A
N1521     Mn1539   2.185       .  S
N1522      N2157   1.318   1_545  A
N1522      C1529   1.348       .  A
N1523      N1524   1.320       .  A
N1523     Mn1527   2.200       .  S
N1524      C2165   1.351       .  A
N1525      N1526   1.325       .  A
N1525     Mn1539   2.221       .  S
N1526      C1528   1.353       .  A
Mn1527    Cl1540   2.538       .  S
C1528      C1568   1.447       .  S
C1529      N2160   1.351   1_545  A
C1529      C1544   1.427       .  S
N1530      N1531   1.324       .  A
N1530      N1536   1.316       .  A
N1530     Mn1538   2.211       .  S
N1531      C1541   1.354       .  A
N1532      N1533   1.323       .  A
N1532      N1534   1.319       .  A
N1532     Mn1539   2.211       .  S
N1533      C1542   1.353       .  A
N1534      N1535   1.320       .  A
N1534     Mn1538   2.212       .  S
N1535      C1542   1.350       .  A
N1536      N1537   1.319       .  A
N1536     Mn1539   2.195       .  S
N1537      C1541   1.347       .  A
Mn1538    Cl1540   2.549       .  S
Mn1539    Cl1540   2.549       .  S
C1541      C1570   1.438       .  S
C1542      C1560   1.439       .  S
C1543      C1544   1.201       .  T
C1545      C1546   1.205       .  T
C1547      C1548   1.208       .  T
C1549      C1868   1.206       .  T
C1550      C1867   1.206   1_554  T
C1551      C2506   1.210   1_554  T
C1552      C2505   1.210   1_545  T
C1553      C2190   1.206       .  T
C1554      C2189   1.206   1_545  T
C1555      C1556   1.200       .  T
C1557      C1558   1.205       .  T
C1559      C1560   1.208       .  T
C1561      C1562   1.199       .  T
C1567      C2522   1.212   1_545  T
C1568      C2521   1.212   1_554  T
C1569      C2206   1.207   1_545  T
C1570      C2205   1.207       .  T
C1571      C1572   1.200       .  T
C1573      C1574   1.205       .  T
C1579      C1580   1.199       .  T
C1581      C1582   1.208       .  T
C1583      C1584   1.199       .  T
C1585      C1586   1.206       .  T
C1587      C1906   1.208       .  T
C1588      C1905   1.208   1_554  T
C1589      C1590   1.210       .  T
N1591      N1592   1.317       .  A
N1591      N1597   1.315       .  A
N1591     Mn1620   2.186       .  S
N1592      C1599   1.347       .  A
N1593      N1595   1.318       .  A
N1593      N1594   1.323       .  A
N1593     Mn1609   2.206       .  S
N1594      C1600   1.351       .  A
N1595      N1596   1.320       .  A
N1595     Mn1620   2.199       .  S
N1596      C1600   1.349       .  A
N1597      N1598   1.319       .  A
N1597     Mn1609   2.190       .  S
N1598      C1599   1.350       .  A
C1599      C1897   1.424       .  S
C1600      C1905   1.438       .  S
N1601      N1607   1.318       .  A
N1601      N1602   1.322       .  A
N1601     Mn1631   2.218       .  S
N1602      C1610   1.352       .  A
N1603      N1604   1.319       .  A
N1603      N1605   1.317       .  A
N1603     Mn1609   2.192       .  S
N1604      C1611   1.346       .  A
N1605      N1606   1.326       .  A
N1605     Mn1631   2.229       .  S
N1606      C1611   1.357       .  A
N1607      N1608   1.320       .  A
N1607     Mn1609   2.198       .  S
N1608      C1610   1.350       .  A
Mn1609    Cl1633   2.547       .  S
C1610      C1904   1.437       .  S
C1611      C1908   1.443       .  S
N1612      N1613   1.320       .  A
N1612      N1618   1.318       .  A
N1612     Mn1620   2.200       .  S
N1613      C1621   1.350       .  A
N1614      N1616   1.315       .  A
N1614     Mn1632   2.189       .  S
N1615      C1622   1.349       .  A
N1616      N1617   1.318       .  A
N1616     Mn1620   2.187       .  S
N1618      N1619   1.323       .  A
N1618     Mn1632   2.209       .  S
N1619      C1621   1.352       .  A
Mn1620    Cl1633   2.541       .  S
C1621      C1893   1.440       .  S
C1622      C1902   1.424       .  S
N1623      N1624   1.327       .  A
N1623      N1629   1.317       .  A
N1623     Mn1631   2.233       .  S
N1624      C1634   1.358       .  A
N1625      N1626   1.321       .  A
N1625      N1627   1.318       .  A
N1625     Mn1632   2.201       .  S
N1626      C1635   1.351       .  A
N1627      N1628   1.322       .  A
N1627     Mn1631   2.217       .  S
N1628      C1635   1.352       .  A
N1629      N1630   1.319       .  A
N1629     Mn1632   2.195       .  S
N1630      C1634   1.346       .  A
Mn1631    Cl1633   2.553       .  S
Mn1632    Cl1633   2.546       .  S
C1634      C1895   1.446       .  S
C1635      C1899   1.439       .  S
N1636      N1637   1.319       .  A
N1636      N1642   1.317       .  A
N1636     Mn1665   2.193       .  S
N1637      C1644   1.347       .  A
N1638      N1640   1.315       .  A
N1638     Mn1654   2.192       .  S
N1639      C1645   1.350       .  A
N1640      N1641   1.318       .  A
N1640     Mn1665   2.190       .  S
N1642      N1643   1.322       .  A
N1642     Mn1654   2.206       .  S
N1643      C1644   1.351       .  A
C1644      C1884   1.435   1_655  S
C1645      C1890   1.427       .  S
N1646      N1652   1.316       .  A
N1646      N1647   1.324       .  A
N1646     Mn1676   2.215       .  S
N1647      C1655   1.355       .  A
N1648      N1649   1.322       .  A
N1648      N1650   1.318       .  A
N1648     Mn1654   2.207       .  S
N1649      C1656   1.352       .  A
N1650      N1651   1.321       .  A
N1650     Mn1676   2.213       .  S
N1651      C1656   1.351       .  A
N1652      N1653   1.317       .  A
N1652     Mn1654   2.183       .  S
N1653      C1655   1.345       .  A
Mn1654    Cl1678   2.550       .  S
C1655      C1882   1.434       .  S
C1656      C1900   1.439       .  S
N1657      N1658   1.317       .  A
N1657      N1663   1.315       .  A
N1657     Mn1665   2.184       .  S
N1658      C2302   1.347   1_545  A
N1659      N1661   1.319       .  A
N1659      N1660   1.323       .  A
N1659     Mn1677   2.214       .  S
N1660      C1667   1.352       .  A
N1661      N1662   1.319       .  A
N1661     Mn1665   2.195       .  S
N1662      C1667   1.347       .  A
N1663      N2300   1.319   1_545  A
N1663     Mn1677   2.188       .  S
N1664      N2299   1.319       .  A
N1664      C1666   1.349       .  A
Mn1665    Cl1678   2.533       .  S
C1666      N2294   1.347       .  A
C1666      C1898   1.424       .  S
C1667      C1887   1.438       .  S
N1668      N1669   1.319       .  A
N1668      N1674   1.317       .  A
N1668     Mn1676   2.204       .  S
N1669      C1679   1.349       .  A
N1670      N1671   1.319       .  A
N1670      N1672   1.317       .  A
N1670     Mn1677   2.198       .  S
N1671      C1680   1.347       .  A
N1672      N1673   1.326       .  A
N1672     Mn1676   2.229       .  S
N1673      C1680   1.357       .  A
N1674      N1675   1.322       .  A
N1674     Mn1677   2.205       .  S
N1675      C1679   1.352       .  A
Mn1676    Cl1678   2.549       .  S
Mn1677    Cl1678   2.550       .  S
C1679      C1892   1.435       .  S
C1680      C1885   1.446       .  S
N1681      N1682   1.327       .  A
N1681      N1687   1.317       .  A
N1681     Mn1710   2.236       .  S
N1682      C1689   1.359       .  A
N1683      N1685   1.317       .  A
N1683      N1684   1.321       .  A
N1683     Mn1699   2.202       .  S
N1684      C1690   1.352       .  A
N1685      N1686   1.319       .  A
N1685     Mn1710   2.203       .  S
N1686      C1690   1.349       .  A
N1687      N1688   1.319       .  A
N1687     Mn1699   2.191       .  S
N1688      C1689   1.346       .  A
C1689      C1896   1.446       .  S
C1690      C1876   1.434       .  S
N1691      N1697   1.319       .  A
N1691      N1692   1.320       .  A
N1691     Mn1721   2.209       .  S
N1692      C1700   1.350       .  A
N1693      N1695   1.314       .  A
N1693     Mn1699   2.184       .  S
N1694      C1701   1.349       .  A
N1695      N1696   1.318       .  A
N1695     Mn1721   2.187       .  S
N1697      N1698   1.323       .  A
N1697     Mn1699   2.208       .  S
N1698      C1700   1.351       .  A
Mn1699    Cl1723   2.551       .  S
C1700      C1894   1.441       .  S
C1701      C1879   1.424       .  S
N1702      N1703   1.321       .  A
N1702      N1708   1.319       .  A
N1702     Mn1710   2.219       .  S
N1703      C1711   1.351       .  A
N1704      N1706   1.316       .  A
N1704      N1705   1.318       .  A
N1704     Mn1722   2.193       .  S
N1705      C1712   1.346       .  A
N1706      N1707   1.324       .  A
N1706     Mn1710   2.211       .  S
N1707      C1712   1.354       .  A
N1708      N1709   1.322       .  A
N1708     Mn1722   2.207       .  S
N1709      C1711   1.352       .  A
Mn1710    Cl1723   2.549       .  S
C1711      C1877   1.439       .  S
C1712      C1871   1.437       .  S
N1713      N1714   1.319       .  A
N1713      N1719   1.315       .  A
N1713     Mn1721   2.195       .  S
N1714      C2360   1.350       .  A
N1715      N1716   1.324       .  A
N1715      N1717   1.319       .  A
N1715     Mn1722   2.215       .  S
N1716      C1725   1.352       .  A
N1717      N1718   1.320       .  A
N1717     Mn1721   2.200       .  S
N1718      C1725   1.348       .  A
N1719      N2356   1.319       .  A
N1719     Mn1722   2.188       .  S
N1720      N2355   1.319   1_545  A
N1720      C1724   1.349       .  A
Mn1721    Cl1723   2.539       .  S
Mn1722    Cl1723   2.548       .  S
C1724      N2350   1.350   1_545  A
C1724      C1874   1.427       .  S
C1725      C1869   1.443       .  S
N1726      N1727   1.321       .  A
N1726      N1732   1.318       .  A
N1726     Mn1755   2.211       .  S
N1727      C1734   1.350       .  A
N1728      N1730   1.316       .  A
N1728      N1729   1.317       .  A
N1728     Mn1744   2.188       .  S
N1729      C1735   1.345       .  A
N1730      N1731   1.324       .  A
N1730     Mn1755   2.215       .  S
N1731      C1735   1.355       .  A
N1732      N1733   1.321       .  A
N1732     Mn1744   2.206       .  S
N1733      C1734   1.352       .  A
C1734      C1903   1.437       .  S
C1735      C1867   1.435       .  S
N1736      N1742   1.314       .  A
N1736      N1737   1.318       .  A
N1736     Mn1766   2.189       .  S
N1737      C1745   1.349       .  A
N1738      N1739   1.324       .  A
N1738      N1740   1.318       .  A
N1738     Mn1744   2.211       .  S
N1739      C1746   1.352       .  A
N1740      N1741   1.319       .  A
N1740     Mn1766   2.194       .  S
N1741      C1746   1.347       .  A
N1742      N1743   1.320       .  A
N1742     Mn1744   2.191       .  S
N1743      C1745   1.350       .  A
Mn1744    Cl1768   2.550       .  S
C1745      C1889   1.427       .  S
C1746      C1865   1.439       .  S
N1747      N1748   1.325       .  A
N1747      N1753   1.317       .  A
N1747     Mn1755   2.224       .  S
N1748      C1756   1.356       .  A
N1749      N1751   1.317       .  A
N1749      N1750   1.321       .  A
N1749     Mn1767   2.204       .  S
N1750      C1757   1.351       .  A
N1751      N1752   1.320       .  A
N1751     Mn1755   2.206       .  S
N1752      C1757   1.350       .  A
N1753      N1754   1.319       .  A
N1753     Mn1767   2.197       .  S
N1754      C1756   1.347       .  A
Mn1755    Cl1768   2.547       .  S
C1756      C1870   1.443       .  S
C1757      C1891   1.436       .  S
N1758      N1759   1.319       .  A
N1758      N1764   1.318       .  A
N1758     Mn1766   2.196       .  S
N1759      C1769   1.348       .  A
N1760      N2397   1.320   1_545  A
N1760      N1762   1.314       .  A
N1760     Mn1767   2.192       .  S
N1761      N2396   1.320       .  A
N1761      C1770   1.350       .  A
N1762      N1763   1.317       .  A
N1762     Mn1766   2.179       .  S
N1763      C2406   1.346   1_545  A
N1764      N1765   1.323       .  A
N1764     Mn1767   2.209       .  S
N1765      C1769   1.351       .  A
Mn1766    Cl1768   2.535       .  S
Mn1767    Cl1768   2.550       .  S
C1769      C1872   1.436       .  S
C1770      N2399   1.346       .  A
C1770      C1901   1.424       .  S
N1771      N1772   1.317       .  A
N1771      N1777   1.314       .  A
N1771     Mn1800   2.183       .  S
N1773      N1775   1.318       .  A
N1773      N1774   1.321       .  A
N1773     Mn1789   2.201       .  S
N1774      C1780   1.350       .  A
N1775      N1776   1.319       .  A
N1775     Mn1800   2.198       .  S
N1776      C1780   1.349       .  A
N1777     Mn1789   2.197       .  S
N1778      C1779   1.352       .  A
C1779      C1861   1.427       .  S
C1780      C1881   1.434       .  S
N1781      N1787   1.317       .  A
N1781      N1782   1.320       .  A
N1781     Mn1811   2.207       .  S
N1782      C1790   1.350       .  A
N1783      N1784   1.318       .  A
N1783      N1785   1.317       .  A
N1783     Mn1789   2.189       .  S
N1784      C1791   1.347       .  A
N1785      N1786   1.323       .  A
N1785     Mn1811   2.215       .  S
N1786      C1791   1.354       .  A
N1787      N1788   1.321       .  A
N1787     Mn1789   2.201       .  S
N1788      C1790   1.351       .  A
Mn1789    Cl1813   2.547       .  S
C1790      C1875   1.434       .  S
C1791      C1883   1.435       .  S
N1792      N1793   1.319       .  A
N1792      N1798   1.318       .  A
N1792     Mn1800   2.196       .  S
N1793      C1801   1.348       .  A
N1794      N1796   1.315       .  A
N1794      N1795   1.320       .  A
N1794     Mn1812   2.192       .  S
N1795      C1802   1.351       .  A
N1796      N1797   1.318       .  A
N1796     Mn1800   2.187       .  S
N1797      C1802   1.348       .  A
N1798      N1799   1.322       .  A
N1798     Mn1812   2.204       .  S
N1799      C1801   1.350       .  A
Mn1800    Cl1813   2.533       .  S
C1801      C1868   1.435       .  S
C1802      C1873   1.427       .  S
N1803      N1804   1.324       .  A
N1803      N1809   1.316       .  A
N1803     Mn1811   2.217       .  S
N1804      C1814   1.355       .  A
N1805      N1806   1.321       .  A
N1805      N1807   1.317       .  A
N1805     Mn1812   2.200       .  S
N1806      C1815   1.350       .  A
N1807      N1808   1.320       .  A
N1807     Mn1811   2.208       .  S
N1808      C1815   1.351       .  A
N1809      N1810   1.318       .  A
N1809     Mn1812   2.193       .  S
N1810      C1814   1.347       .  A
Mn1811    Cl1813   2.549       .  S
Mn1812    Cl1813   2.546       .  S
C1814      C1866   1.439       .  S
C1815      C1863   1.435       .  S
N1816      N1817   1.318       .  A
N1816      N1822   1.314       .  A
N1816     Mn1845   2.188       .  S
N1817      C1824   1.348       .  A
N1818      N1820   1.319       .  A
N1818      N1819   1.322       .  A
N1818     Mn1834   2.205       .  S
N1819      C1825   1.351       .  A
N1820      N1821   1.320       .  A
N1820     Mn1845   2.211       .  S
N1821      C1825   1.351       .  A
N1822      N1823   1.319       .  A
N1822     Mn1834   2.186       .  S
N1823      C1824   1.349       .  A
C1824      C1880   1.424       .  S
C1825      C1906   1.439       .  S
N1826      N1832   1.317       .  A
N1826      N1827   1.319       .  A
N1826     Mn1856   2.201       .  S
N1827      C1835   1.349       .  A
N1828      N1829   1.318       .  A
N1828      N1830   1.316       .  A
N1828     Mn1834   2.187       .  S
N1829      C1836   1.346       .  A
N1830      N1831   1.326       .  A
N1830     Mn1856   2.230       .  S
N1831      C1836   1.358       .  A
N1832      N1833   1.322       .  A
N1832     Mn1834   2.204       .  S
N1833      C1835   1.352       .  A
Mn1834    Cl1858   2.551       .  S
C1835      C1864   1.435       .  S
C1836      C1907   1.443       .  S
N1837      N1838   1.321       .  A
N1837      N1843   1.320       .  A
N1837     Mn1845   2.202       .  S
N1838      C1846   1.349       .  A
N1839      N1841   1.315       .  A
N1839      N2476   1.318       .  A
N1839     Mn1857   2.185       .  S
N1840      N2475   1.318   1_545  A
N1840      C1847   1.348       .  A
N1841      N1842   1.320       .  A
N1841     Mn1845   2.200       .  S
N1842      C2483   1.351       .  A
N1843      N1844   1.325       .  A
N1843     Mn1857   2.221       .  S
N1844      C1846   1.353       .  A
Mn1845    Cl1858   2.538       .  S
C1846      C1886   1.447       .  S
C1847      N2478   1.351   1_545  A
C1847      C1862   1.427       .  S
N1848      N1849   1.324       .  A
N1848      N1854   1.316       .  A
N1848     Mn1856   2.211       .  S
N1849      C1859   1.354       .  A
N1850      N1851   1.323       .  A
N1850      N1852   1.319       .  A
N1850     Mn1857   2.211       .  S
N1851      C1860   1.353       .  A
N1852      N1853   1.320       .  A
N1852     Mn1856   2.212       .  S
N1853      C1860   1.350       .  A
N1854      N1855   1.319       .  A
N1854     Mn1857   2.195       .  S
N1855      C1859   1.347       .  A
Mn1856    Cl1858   2.549       .  S
Mn1857    Cl1858   2.549       .  S
C1859      C1888   1.438       .  S
C1860      C1878   1.439       .  S
C1861      C1862   1.201       .  T
C1863      C1864   1.205       .  T
C1865      C1866   1.208       .  T
C1869      C2188   1.210       .  T
C1870      C2187   1.210   1_546  T
C1871      C2508   1.206       .  T
C1872      C2507   1.206   1_545  T
C1873      C1874   1.200       .  T
C1875      C1876   1.205       .  T
C1877      C1878   1.208       .  T
C1879      C1880   1.199       .  T
C1885      C2204   1.212   1_546  T
C1886      C2203   1.212       .  T
C1887      C2524   1.207   1_545  T
C1888      C2523   1.207       .  T
C1889      C1890   1.200       .  T
C1891      C1892   1.205       .  T
C1897      C1898   1.199       .  T
C1899      C1900   1.208       .  T
C1901      C1902   1.199       .  T
C1903      C1904   1.206       .  T
C1907      C1908   1.210       .  T
N1909      N1910   1.317       .  A
N1909      N1915   1.315       .  A
N1909     Mn1938   2.186       .  S
N1910      C1917   1.347       .  A
N1911      N1913   1.318       .  A
N1911      N1912   1.323       .  A
N1911     Mn1927   2.206       .  S
N1912      C1918   1.351       .  A
N1913      N1914   1.320       .  A
N1913     Mn1938   2.199       .  S
N1914      C1918   1.349       .  A
N1915      N1916   1.319       .  A
N1915     Mn1927   2.190       .  S
N1916      C1917   1.350       .  A
C1917      C2215   1.424       .  S
C1918      C2223   1.438       .  S
N1919      N1925   1.318       .  A
N1919      N1920   1.322       .  A
N1919     Mn1949   2.218       .  S
N1920      C1928   1.352       .  A
N1921      N1922   1.319       .  A
N1921      N1923   1.317       .  A
N1921     Mn1927   2.192       .  S
N1922      C1929   1.346       .  A
N1923      N1924   1.326       .  A
N1923     Mn1949   2.229       .  S
N1924      C1929   1.357       .  A
N1925      N1926   1.320       .  A
N1925     Mn1927   2.198       .  S
N1926      C1928   1.350       .  A
Mn1927    Cl1951   2.547       .  S
C1928      C2222   1.437       .  S
C1929      C2226   1.443       .  S
N1930      N1931   1.320       .  A
N1930      N1936   1.318       .  A
N1930     Mn1938   2.200       .  S
N1931      C1939   1.350       .  A
N1932      N1934   1.315       .  A
N1932     Mn1950   2.189       .  S
N1933      C1940   1.349       .  A
N1934      N1935   1.318       .  A
N1934     Mn1938   2.187       .  S
N1936      N1937   1.323       .  A
N1936     Mn1950   2.209       .  S
N1937      C1939   1.352       .  A
Mn1938    Cl1951   2.541       .  S
C1939      C2211   1.440       .  S
C1940      C2220   1.424       .  S
N1941      N1942   1.327       .  A
N1941      N1947   1.317       .  A
N1941     Mn1949   2.233       .  S
N1942      C1952   1.358       .  A
N1943      N1944   1.321       .  A
N1943      N1945   1.318       .  A
N1943     Mn1950   2.201       .  S
N1944      C1953   1.351       .  A
N1945      N1946   1.322       .  A
N1945     Mn1949   2.217       .  S
N1946      C1953   1.352       .  A
N1947      N1948   1.319       .  A
N1947     Mn1950   2.195       .  S
N1948      C1952   1.346       .  A
Mn1949    Cl1951   2.553       .  S
Mn1950    Cl1951   2.546       .  S
C1952      C2213   1.446       .  S
C1953      C2217   1.439       .  S
N1954      N1955   1.319       .  A
N1954      N1960   1.317       .  A
N1954     Mn1983   2.193       .  S
N1955      C1962   1.347       .  A
N1956      N1958   1.315       .  A
N1956     Mn1972   2.192       .  S
N1957      C1963   1.350       .  A
N1958      N1959   1.318       .  A
N1958     Mn1983   2.190       .  S
N1960      N1961   1.322       .  A
N1960     Mn1972   2.206       .  S
N1961      C1962   1.351       .  A
C1962      C2202   1.435   1_655  S
C1963      C2208   1.427       .  S
N1964      N1970   1.316       .  A
N1964      N1965   1.324       .  A
N1964     Mn1994   2.215       .  S
N1965      C1973   1.355       .  A
N1966      N1967   1.322       .  A
N1966      N1968   1.318       .  A
N1966     Mn1972   2.207       .  S
N1967      C1974   1.352       .  A
N1968      N1969   1.321       .  A
N1968     Mn1994   2.213       .  S
N1969      C1974   1.351       .  A
N1970      N1971   1.317       .  A
N1970     Mn1972   2.183       .  S
N1971      C1973   1.345       .  A
Mn1972    Cl1996   2.550       .  S
C1973      C2200   1.434       .  S
C1974      C2218   1.439       .  S
N1975      N1976   1.317       .  A
N1975      N1981   1.315       .  A
N1975     Mn1983   2.184       .  S
N1977      N1979   1.319       .  A
N1977      N1978   1.323       .  A
N1977     Mn1995   2.214       .  S
N1978      C1985   1.352       .  A
N1979      N1980   1.319       .  A
N1979     Mn1983   2.195       .  S
N1980      C1985   1.347       .  A
N1981     Mn1995   2.188       .  S
N1982      C1984   1.349       .  A
Mn1983    Cl1996   2.533       .  S
C1984      C2216   1.424       .  S
C1985      C2205   1.438       .  S
N1986      N1987   1.319       .  A
N1986      N1992   1.317       .  A
N1986     Mn1994   2.204       .  S
N1987      C1997   1.349       .  A
N1988      N1989   1.319       .  A
N1988      N1990   1.317       .  A
N1988     Mn1995   2.198       .  S
N1989      C1998   1.347       .  A
N1990      N1991   1.326       .  A
N1990     Mn1994   2.229       .  S
N1991      C1998   1.357       .  A
N1992      N1993   1.322       .  A
N1992     Mn1995   2.205       .  S
N1993      C1997   1.352       .  A
Mn1994    Cl1996   2.549       .  S
Mn1995    Cl1996   2.550       .  S
C1997      C2210   1.435       .  S
C1998      C2203   1.446       .  S
N1999      N2000   1.327       .  A
N1999      N2005   1.317       .  A
N1999     Mn2028   2.236       .  S
N2000      C2007   1.359       .  A
N2001      N2003   1.317       .  A
N2001      N2002   1.321       .  A
N2001     Mn2017   2.202       .  S
N2002      C2008   1.352       .  A
N2003      N2004   1.319       .  A
N2003     Mn2028   2.203       .  S
N2004      C2008   1.349       .  A
N2005      N2006   1.319       .  A
N2005     Mn2017   2.191       .  S
N2006      C2007   1.346       .  A
C2007      C2214   1.446       .  S
C2008      C2194   1.434       .  S
N2009      N2015   1.319       .  A
N2009      N2010   1.320       .  A
N2009     Mn2039   2.209       .  S
N2010      C2018   1.350       .  A
N2011      N2013   1.314       .  A
N2011     Mn2017   2.184       .  S
N2012      C2019   1.349       .  A
N2013      N2014   1.318       .  A
N2013     Mn2039   2.187       .  S
N2015      N2016   1.323       .  A
N2015     Mn2017   2.208       .  S
N2016      C2018   1.351       .  A
Mn2017    Cl2041   2.551       .  S
C2018      C2212   1.441       .  S
C2019      C2197   1.424       .  S
N2020      N2021   1.321       .  A
N2020      N2026   1.319       .  A
N2020     Mn2028   2.219       .  S
N2021      C2029   1.351       .  A
N2022      N2024   1.316       .  A
N2022      N2023   1.318       .  A
N2022     Mn2040   2.193       .  S
N2023      C2030   1.346       .  A
N2024      N2025   1.324       .  A
N2024     Mn2028   2.211       .  S
N2025      C2030   1.354       .  A
N2026      N2027   1.322       .  A
N2026     Mn2040   2.207       .  S
N2027      C2029   1.352       .  A
Mn2028    Cl2041   2.549       .  S
C2029      C2195   1.439       .  S
C2030      C2189   1.437       .  S
N2031      N2032   1.319       .  A
N2031      N2037   1.315       .  A
N2031     Mn2039   2.195       .  S
N2033      N2034   1.324       .  A
N2033      N2035   1.319       .  A
N2033     Mn2040   2.215       .  S
N2034      C2043   1.352       .  A
N2035      N2036   1.320       .  A
N2035     Mn2039   2.200       .  S
N2036      C2043   1.348       .  A
N2037     Mn2040   2.188       .  S
N2038      C2042   1.349       .  A
Mn2039    Cl2041   2.539       .  S
Mn2040    Cl2041   2.548       .  S
C2042      C2192   1.427       .  S
C2043      C2187   1.443       .  S
N2044      N2045   1.321       .  A
N2044      N2050   1.318       .  A
N2044     Mn2073   2.211       .  S
N2045      C2052   1.350       .  A
N2046      N2048   1.316       .  A
N2046      N2047   1.317       .  A
N2046     Mn2062   2.188       .  S
N2047      C2053   1.345       .  A
N2048      N2049   1.324       .  A
N2048     Mn2073   2.215       .  S
N2049      C2053   1.355       .  A
N2050      N2051   1.321       .  A
N2050     Mn2062   2.206       .  S
N2051      C2052   1.352       .  A
C2052      C2221   1.437       .  S
C2053      C2185   1.435       .  S
N2054      N2060   1.314       .  A
N2054      N2055   1.318       .  A
N2054     Mn2084   2.189       .  S
N2055      C2063   1.349       .  A
N2056      N2057   1.324       .  A
N2056      N2058   1.318       .  A
N2056     Mn2062   2.211       .  S
N2057      C2064   1.352       .  A
N2058      N2059   1.319       .  A
N2058     Mn2084   2.194       .  S
N2059      C2064   1.347       .  A
N2060      N2061   1.320       .  A
N2060     Mn2062   2.191       .  S
N2061      C2063   1.350       .  A
Mn2062    Cl2086   2.550       .  S
C2063      C2207   1.427       .  S
C2064      C2183   1.439       .  S
N2065      N2066   1.325       .  A
N2065      N2071   1.317       .  A
N2065     Mn2073   2.224       .  S
N2066      C2074   1.356       .  A
N2067      N2069   1.317       .  A
N2067      N2068   1.321       .  A
N2067     Mn2085   2.204       .  S
N2068      C2075   1.351       .  A
N2069      N2070   1.320       .  A
N2069     Mn2073   2.206       .  S
N2070      C2075   1.350       .  A
N2071      N2072   1.319       .  A
N2071     Mn2085   2.197       .  S
N2072      C2074   1.347       .  A
Mn2073    Cl2086   2.547       .  S
C2074      C2188   1.443       .  S
C2075      C2209   1.436       .  S
N2076      N2077   1.319       .  A
N2076      N2082   1.318       .  A
N2076     Mn2084   2.196       .  S
N2077      C2087   1.348       .  A
N2078      N2080   1.314       .  A
N2078     Mn2085   2.192       .  S
N2079      C2088   1.350       .  A
N2080      N2081   1.317       .  A
N2080     Mn2084   2.179       .  S
N2082      N2083   1.323       .  A
N2082     Mn2085   2.209       .  S
N2083      C2087   1.351       .  A
Mn2084    Cl2086   2.535       .  S
Mn2085    Cl2086   2.550       .  S
C2087      C2190   1.436       .  S
C2088      C2219   1.424       .  S
N2089      N2090   1.317       .  A
N2089      N2095   1.314       .  A
N2089     Mn2118   2.183       .  S
N2091      N2093   1.318       .  A
N2091      N2092   1.321       .  A
N2091     Mn2107   2.201       .  S
N2092      C2098   1.350       .  A
N2093      N2094   1.319       .  A
N2093     Mn2118   2.198       .  S
N2094      C2098   1.349       .  A
N2095     Mn2107   2.197       .  S
N2096      C2097   1.352       .  A
C2097      C2179   1.427       .  S
C2098      C2199   1.434       .  S
N2099      N2105   1.317       .  A
N2099      N2100   1.320       .  A
N2099     Mn2129   2.207       .  S
N2100      C2108   1.350       .  A
N2101      N2102   1.318       .  A
N2101      N2103   1.317       .  A
N2101     Mn2107   2.189       .  S
N2102      C2109   1.347       .  A
N2103      N2104   1.323       .  A
N2103     Mn2129   2.215       .  S
N2104      C2109   1.354       .  A
N2105      N2106   1.321       .  A
N2105     Mn2107   2.201       .  S
N2106      C2108   1.351       .  A
Mn2107    Cl2131   2.547       .  S
C2108      C2193   1.434       .  S
C2109      C2201   1.435       .  S
N2110      N2111   1.319       .  A
N2110      N2116   1.318       .  A
N2110     Mn2118   2.196       .  S
N2111      C2119   1.348       .  A
N2112      N2114   1.315       .  A
N2112      N2113   1.320       .  A
N2112     Mn2130   2.192       .  S
N2113      C2120   1.351       .  A
N2114      N2115   1.318       .  A
N2114     Mn2118   2.187       .  S
N2115      C2120   1.348       .  A
N2116      N2117   1.322       .  A
N2116     Mn2130   2.204       .  S
N2117      C2119   1.350       .  A
Mn2118    Cl2131   2.533       .  S
C2119      C2186   1.435       .  S
C2120      C2191   1.427       .  S
N2121      N2122   1.324       .  A
N2121      N2127   1.316       .  A
N2121     Mn2129   2.217       .  S
N2122      C2132   1.355       .  A
N2123      N2124   1.321       .  A
N2123      N2125   1.317       .  A
N2123     Mn2130   2.200       .  S
N2124      C2133   1.350       .  A
N2125      N2126   1.320       .  A
N2125     Mn2129   2.208       .  S
N2126      C2133   1.351       .  A
N2127      N2128   1.318       .  A
N2127     Mn2130   2.193       .  S
N2128      C2132   1.347       .  A
Mn2129    Cl2131   2.549       .  S
Mn2130    Cl2131   2.546       .  S
C2132      C2184   1.439       .  S
C2133      C2181   1.435       .  S
N2134      N2135   1.318       .  A
N2134      N2140   1.314       .  A
N2134     Mn2163   2.188       .  S
N2135      C2142   1.348       .  A
N2136      N2138   1.319       .  A
N2136      N2137   1.322       .  A
N2136     Mn2152   2.205       .  S
N2137      C2143   1.351       .  A
N2138      N2139   1.320       .  A
N2138     Mn2163   2.211       .  S
N2139      C2143   1.351       .  A
N2140      N2141   1.319       .  A
N2140     Mn2152   2.186       .  S
N2141      C2142   1.349       .  A
C2142      C2198   1.424       .  S
C2143      C2224   1.439       .  S
N2144      N2150   1.317       .  A
N2144      N2145   1.319       .  A
N2144     Mn2174   2.201       .  S
N2145      C2153   1.349       .  A
N2146      N2147   1.318       .  A
N2146      N2148   1.316       .  A
N2146     Mn2152   2.187       .  S
N2147      C2154   1.346       .  A
N2148      N2149   1.326       .  A
N2148     Mn2174   2.230       .  S
N2149      C2154   1.358       .  A
N2150      N2151   1.322       .  A
N2150     Mn2152   2.204       .  S
N2151      C2153   1.352       .  A
Mn2152    Cl2176   2.551       .  S
C2153      C2182   1.435       .  S
C2154      C2225   1.443       .  S
N2155      N2156   1.321       .  A
N2155      N2161   1.320       .  A
N2155     Mn2163   2.202       .  S
N2156      C2164   1.349       .  A
N2157      N2159   1.315       .  A
N2157     Mn2175   2.185       .  S
N2158      C2165   1.348       .  A
N2159      N2160   1.320       .  A
N2159     Mn2163   2.200       .  S
N2161      N2162   1.325       .  A
N2161     Mn2175   2.221       .  S
N2162      C2164   1.353       .  A
Mn2163    Cl2176   2.538       .  S
C2164      C2204   1.447       .  S
C2165      C2180   1.427       .  S
N2166      N2167   1.324       .  A
N2166      N2172   1.316       .  A
N2166     Mn2174   2.211       .  S
N2167      C2177   1.354       .  A
N2168      N2169   1.323       .  A
N2168      N2170   1.319       .  A
N2168     Mn2175   2.211       .  S
N2169      C2178   1.353       .  A
N2170      N2171   1.320       .  A
N2170     Mn2174   2.212       .  S
N2171      C2178   1.350       .  A
N2172      N2173   1.319       .  A
N2172     Mn2175   2.195       .  S
N2173      C2177   1.347       .  A
Mn2174    Cl2176   2.549       .  S
Mn2175    Cl2176   2.549       .  S
C2177      C2206   1.438       .  S
C2178      C2196   1.439       .  S
C2179      C2180   1.201       .  T
C2181      C2182   1.205       .  T
C2183      C2184   1.208       .  T
C2185      C2504   1.206       .  T
C2186      C2503   1.206   1_554  T
C2191      C2192   1.200       .  T
C2193      C2194   1.205       .  T
C2195      C2196   1.208       .  T
C2197      C2198   1.199       .  T
C2207      C2208   1.200       .  T
C2209      C2210   1.205       .  T
C2215      C2216   1.199       .  T
C2217      C2218   1.208       .  T
C2219      C2220   1.199       .  T
C2221      C2222   1.206       .  T
C2223      C2542   1.208       .  T
C2224      C2541   1.208   1_554  T
C2225      C2226   1.210       .  T
N2227      N2228   1.317       .  A
N2227      N2233   1.315       .  A
N2227     Mn2256   2.186       .  S
N2228      C2235   1.347       .  A
N2229      N2231   1.318       .  A
N2229      N2230   1.323       .  A
N2229     Mn2245   2.206       .  S
N2230      C2236   1.351       .  A
N2231      N2232   1.320       .  A
N2231     Mn2256   2.199       .  S
N2232      C2236   1.349       .  A
N2233      N2234   1.319       .  A
N2233     Mn2245   2.190       .  S
N2234      C2235   1.350       .  A
C2235      C2533   1.424       .  S
C2236      C2541   1.438       .  S
N2237      N2243   1.318       .  A
N2237      N2238   1.322       .  A
N2237     Mn2267   2.218       .  S
N2238      C2246   1.352       .  A
N2239      N2240   1.319       .  A
N2239      N2241   1.317       .  A
N2239     Mn2245   2.192       .  S
N2240      C2247   1.346       .  A
N2241      N2242   1.326       .  A
N2241     Mn2267   2.229       .  S
N2242      C2247   1.357       .  A
N2243      N2244   1.320       .  A
N2243     Mn2245   2.198       .  S
N2244      C2246   1.350       .  A
Mn2245    Cl2269   2.547       .  S
C2246      C2540   1.437       .  S
C2247      C2544   1.443       .  S
N2248      N2249   1.320       .  A
N2248      N2254   1.318       .  A
N2248     Mn2256   2.200       .  S
N2249      C2257   1.350       .  A
N2250      N2252   1.315       .  A
N2250     Mn2268   2.189       .  S
N2251      C2258   1.349       .  A
N2252      N2253   1.318       .  A
N2252     Mn2256   2.187       .  S
N2254      N2255   1.323       .  A
N2254     Mn2268   2.209       .  S
N2255      C2257   1.352       .  A
Mn2256    Cl2269   2.541       .  S
C2257      C2529   1.440       .  S
C2258      C2538   1.424       .  S
N2259      N2260   1.327       .  A
N2259      N2265   1.317       .  A
N2259     Mn2267   2.233       .  S
N2260      C2270   1.358       .  A
N2261      N2262   1.321       .  A
N2261      N2263   1.318       .  A
N2261     Mn2268   2.201       .  S
N2262      C2271   1.351       .  A
N2263      N2264   1.322       .  A
N2263     Mn2267   2.217       .  S
N2264      C2271   1.352       .  A
N2265      N2266   1.319       .  A
N2265     Mn2268   2.195       .  S
N2266      C2270   1.346       .  A
Mn2267    Cl2269   2.553       .  S
Mn2268    Cl2269   2.546       .  S
C2270      C2531   1.446       .  S
C2271      C2535   1.439       .  S
N2272      N2273   1.319       .  A
N2272      N2278   1.317       .  A
N2272     Mn2301   2.193       .  S
N2273      C2280   1.347       .  A
N2274      N2276   1.315       .  A
N2274     Mn2290   2.192       .  S
N2275      C2281   1.350       .  A
N2276      N2277   1.318       .  A
N2276     Mn2301   2.190       .  S
N2278      N2279   1.322       .  A
N2278     Mn2290   2.206       .  S
N2279      C2280   1.351       .  A
C2280      C2520   1.435   1_655  S
C2281      C2526   1.427       .  S
N2282      N2288   1.316       .  A
N2282      N2283   1.324       .  A
N2282     Mn2312   2.215       .  S
N2283      C2291   1.355       .  A
N2284      N2285   1.322       .  A
N2284      N2286   1.318       .  A
N2284     Mn2290   2.207       .  S
N2285      C2292   1.352       .  A
N2286      N2287   1.321       .  A
N2286     Mn2312   2.213       .  S
N2287      C2292   1.351       .  A
N2288      N2289   1.317       .  A
N2288     Mn2290   2.183       .  S
N2289      C2291   1.345       .  A
Mn2290    Cl2314   2.550       .  S
C2291      C2518   1.434       .  S
C2292      C2536   1.439       .  S
N2293      N2294   1.317       .  A
N2293      N2299   1.315       .  A
N2293     Mn2301   2.184       .  S
N2295      N2297   1.319       .  A
N2295      N2296   1.323       .  A
N2295     Mn2313   2.214       .  S
N2296      C2303   1.352       .  A
N2297      N2298   1.319       .  A
N2297     Mn2301   2.195       .  S
N2298      C2303   1.347       .  A
N2299     Mn2313   2.188       .  S
N2300      C2302   1.349       .  A
Mn2301    Cl2314   2.533       .  S
C2302      C2534   1.424       .  S
C2303      C2523   1.438       .  S
N2304      N2305   1.319       .  A
N2304      N2310   1.317       .  A
N2304     Mn2312   2.204       .  S
N2305      C2315   1.349       .  A
N2306      N2307   1.319       .  A
N2306      N2308   1.317       .  A
N2306     Mn2313   2.198       .  S
N2307      C2316   1.347       .  A
N2308      N2309   1.326       .  A
N2308     Mn2312   2.229       .  S
N2309      C2316   1.357       .  A
N2310      N2311   1.322       .  A
N2310     Mn2313   2.205       .  S
N2311      C2315   1.352       .  A
Mn2312    Cl2314   2.549       .  S
Mn2313    Cl2314   2.550       .  S
C2315      C2528   1.435       .  S
C2316      C2521   1.446       .  S
N2317      N2318   1.327       .  A
N2317      N2323   1.317       .  A
N2317     Mn2346   2.236       .  S
N2318      C2325   1.359       .  A
N2319      N2321   1.317       .  A
N2319      N2320   1.321       .  A
N2319     Mn2335   2.202       .  S
N2320      C2326   1.352       .  A
N2321      N2322   1.319       .  A
N2321     Mn2346   2.203       .  S
N2322      C2326   1.349       .  A
N2323      N2324   1.319       .  A
N2323     Mn2335   2.191       .  S
N2324      C2325   1.346       .  A
C2325      C2532   1.446       .  S
C2326      C2512   1.434       .  S
N2327      N2333   1.319       .  A
N2327      N2328   1.320       .  A
N2327     Mn2357   2.209       .  S
N2328      C2336   1.350       .  A
N2329      N2331   1.314       .  A
N2329     Mn2335   2.184       .  S
N2330      C2337   1.349       .  A
N2331      N2332   1.318       .  A
N2331     Mn2357   2.187       .  S
N2333      N2334   1.323       .  A
N2333     Mn2335   2.208       .  S
N2334      C2336   1.351       .  A
Mn2335    Cl2359   2.551       .  S
C2336      C2530   1.441       .  S
C2337      C2515   1.424       .  S
N2338      N2339   1.321       .  A
N2338      N2344   1.319       .  A
N2338     Mn2346   2.219       .  S
N2339      C2347   1.351       .  A
N2340      N2342   1.316       .  A
N2340      N2341   1.318       .  A
N2340     Mn2358   2.193       .  S
N2341      C2348   1.346       .  A
N2342      N2343   1.324       .  A
N2342     Mn2346   2.211       .  S
N2343      C2348   1.354       .  A
N2344      N2345   1.322       .  A
N2344     Mn2358   2.207       .  S
N2345      C2347   1.352       .  A
Mn2346    Cl2359   2.549       .  S
C2347      C2513   1.439       .  S
C2348      C2507   1.437       .  S
N2349      N2350   1.319       .  A
N2349      N2355   1.315       .  A
N2349     Mn2357   2.195       .  S
N2351      N2352   1.324       .  A
N2351      N2353   1.319       .  A
N2351     Mn2358   2.215       .  S
N2352      C2361   1.352       .  A
N2353      N2354   1.320       .  A
N2353     Mn2357   2.200       .  S
N2354      C2361   1.348       .  A
N2355     Mn2358   2.188       .  S
N2356      C2360   1.349       .  A
Mn2357    Cl2359   2.539       .  S
Mn2358    Cl2359   2.548       .  S
C2360      C2510   1.427       .  S
C2361      C2505   1.443       .  S
N2362      N2363   1.321       .  A
N2362      N2368   1.318       .  A
N2362     Mn2391   2.211       .  S
N2363      C2370   1.350       .  A
N2364      N2366   1.316       .  A
N2364      N2365   1.317       .  A
N2364     Mn2380   2.188       .  S
N2365      C2371   1.345       .  A
N2366      N2367   1.324       .  A
N2366     Mn2391   2.215       .  S
N2367      C2371   1.355       .  A
N2368      N2369   1.321       .  A
N2368     Mn2380   2.206       .  S
N2369      C2370   1.352       .  A
C2370      C2539   1.437       .  S
C2371      C2503   1.435       .  S
N2372      N2378   1.314       .  A
N2372      N2373   1.318       .  A
N2372     Mn2402   2.189       .  S
N2373      C2381   1.349       .  A
N2374      N2375   1.324       .  A
N2374      N2376   1.318       .  A
N2374     Mn2380   2.211       .  S
N2375      C2382   1.352       .  A
N2376      N2377   1.319       .  A
N2376     Mn2402   2.194       .  S
N2377      C2382   1.347       .  A
N2378      N2379   1.320       .  A
N2378     Mn2380   2.191       .  S
N2379      C2381   1.350       .  A
Mn2380    Cl2404   2.550       .  S
C2381      C2525   1.427       .  S
C2382      C2501   1.439       .  S
N2383      N2384   1.325       .  A
N2383      N2389   1.317       .  A
N2383     Mn2391   2.224       .  S
N2384      C2392   1.356       .  A
N2385      N2387   1.317       .  A
N2385      N2386   1.321       .  A
N2385     Mn2403   2.204       .  S
N2386      C2393   1.351       .  A
N2387      N2388   1.320       .  A
N2387     Mn2391   2.206       .  S
N2388      C2393   1.350       .  A
N2389      N2390   1.319       .  A
N2389     Mn2403   2.197       .  S
N2390      C2392   1.347       .  A
Mn2391    Cl2404   2.547       .  S
C2392      C2506   1.443       .  S
C2393      C2527   1.436       .  S
N2394      N2395   1.319       .  A
N2394      N2400   1.318       .  A
N2394     Mn2402   2.196       .  S
N2395      C2405   1.348       .  A
N2396      N2398   1.314       .  A
N2396     Mn2403   2.192       .  S
N2397      C2406   1.350       .  A
N2398      N2399   1.317       .  A
N2398     Mn2402   2.179       .  S
N2400      N2401   1.323       .  A
N2400     Mn2403   2.209       .  S
N2401      C2405   1.351       .  A
Mn2402    Cl2404   2.535       .  S
Mn2403    Cl2404   2.550       .  S
C2405      C2508   1.436       .  S
C2406      C2537   1.424       .  S
N2407      N2408   1.317       .  A
N2407      N2413   1.314       .  A
N2407     Mn2436   2.183       .  S
N2409      N2411   1.318       .  A
N2409      N2410   1.321       .  A
N2409     Mn2425   2.201       .  S
N2410      C2416   1.350       .  A
N2411      N2412   1.319       .  A
N2411     Mn2436   2.198       .  S
N2412      C2416   1.349       .  A
N2413     Mn2425   2.197       .  S
N2414      C2415   1.352       .  A
C2415      C2497   1.427       .  S
C2416      C2517   1.434       .  S
N2417      N2423   1.317       .  A
N2417      N2418   1.320       .  A
N2417     Mn2447   2.207       .  S
N2418      C2426   1.350       .  A
N2419      N2420   1.318       .  A
N2419      N2421   1.317       .  A
N2419     Mn2425   2.189       .  S
N2420      C2427   1.347       .  A
N2421      N2422   1.323       .  A
N2421     Mn2447   2.215       .  S
N2422      C2427   1.354       .  A
N2423      N2424   1.321       .  A
N2423     Mn2425   2.201       .  S
N2424      C2426   1.351       .  A
Mn2425    Cl2449   2.547       .  S
C2426      C2511   1.434       .  S
C2427      C2519   1.435       .  S
N2428      N2429   1.319       .  A
N2428      N2434   1.318       .  A
N2428     Mn2436   2.196       .  S
N2429      C2437   1.348       .  A
N2430      N2432   1.315       .  A
N2430      N2431   1.320       .  A
N2430     Mn2448   2.192       .  S
N2431      C2438   1.351       .  A
N2432      N2433   1.318       .  A
N2432     Mn2436   2.187       .  S
N2433      C2438   1.348       .  A
N2434      N2435   1.322       .  A
N2434     Mn2448   2.204       .  S
N2435      C2437   1.350       .  A
Mn2436    Cl2449   2.533       .  S
C2437      C2504   1.435       .  S
C2438      C2509   1.427       .  S
N2439      N2440   1.324       .  A
N2439      N2445   1.316       .  A
N2439     Mn2447   2.217       .  S
N2440      C2450   1.355       .  A
N2441      N2442   1.321       .  A
N2441      N2443   1.317       .  A
N2441     Mn2448   2.200       .  S
N2442      C2451   1.350       .  A
N2443      N2444   1.320       .  A
N2443     Mn2447   2.208       .  S
N2444      C2451   1.351       .  A
N2445      N2446   1.318       .  A
N2445     Mn2448   2.193       .  S
N2446      C2450   1.347       .  A
Mn2447    Cl2449   2.549       .  S
Mn2448    Cl2449   2.546       .  S
C2450      C2502   1.439       .  S
C2451      C2499   1.435       .  S
N2452      N2453   1.318       .  A
N2452      N2458   1.314       .  A
N2452     Mn2481   2.188       .  S
N2453      C2460   1.348       .  A
N2454      N2456   1.319       .  A
N2454      N2455   1.322       .  A
N2454     Mn2470   2.205       .  S
N2455      C2461   1.351       .  A
N2456      N2457   1.320       .  A
N2456     Mn2481   2.211       .  S
N2457      C2461   1.351       .  A
N2458      N2459   1.319       .  A
N2458     Mn2470   2.186       .  S
N2459      C2460   1.349       .  A
C2460      C2516   1.424       .  S
C2461      C2542   1.439       .  S
N2462      N2468   1.317       .  A
N2462      N2463   1.319       .  A
N2462     Mn2492   2.201       .  S
N2463      C2471   1.349       .  A
N2464      N2465   1.318       .  A
N2464      N2466   1.316       .  A
N2464     Mn2470   2.187       .  S
N2465      C2472   1.346       .  A
N2466      N2467   1.326       .  A
N2466     Mn2492   2.230       .  S
N2467      C2472   1.358       .  A
N2468      N2469   1.322       .  A
N2468     Mn2470   2.204       .  S
N2469      C2471   1.352       .  A
Mn2470    Cl2494   2.551       .  S
C2471      C2500   1.435       .  S
C2472      C2543   1.443       .  S
N2473      N2474   1.321       .  A
N2473      N2479   1.320       .  A
N2473     Mn2481   2.202       .  S
N2474      C2482   1.349       .  A
N2475      N2477   1.315       .  A
N2475     Mn2493   2.185       .  S
N2476      C2483   1.348       .  A
N2477      N2478   1.320       .  A
N2477     Mn2481   2.200       .  S
N2479      N2480   1.325       .  A
N2479     Mn2493   2.221       .  S
N2480      C2482   1.353       .  A
Mn2481    Cl2494   2.538       .  S
C2482      C2522   1.447       .  S
C2483      C2498   1.427       .  S
N2484      N2485   1.324       .  A
N2484      N2490   1.316       .  A
N2484     Mn2492   2.211       .  S
N2485      C2495   1.354       .  A
N2486      N2487   1.323       .  A
N2486      N2488   1.319       .  A
N2486     Mn2493   2.211       .  S
N2487      C2496   1.353       .  A
N2488      N2489   1.320       .  A
N2488     Mn2492   2.212       .  S
N2489      C2496   1.350       .  A
N2490      N2491   1.319       .  A
N2490     Mn2493   2.195       .  S
N2491      C2495   1.347       .  A
Mn2492    Cl2494   2.549       .  S
Mn2493    Cl2494   2.549       .  S
C2495      C2524   1.438       .  S
C2496      C2514   1.439       .  S
C2497      C2498   1.201       .  T
C2499      C2500   1.205       .  T
C2501      C2502   1.208       .  T
C2509      C2510   1.200       .  T
C2511      C2512   1.205       .  T
C2513      C2514   1.208       .  T
C2515      C2516   1.199       .  T
C2525      C2526   1.200       .  T
C2527      C2528   1.205       .  T
C2533      C2534   1.199       .  T
C2535      C2536   1.208       .  T
C2537      C2538   1.199       .  T
C2539      C2540   1.206       .  T
C2543      C2544   1.210       .  T
